units(length='cm', time='s', quantity='mol', act_energy='kcal/mol')

ideal_gas(name='gas',
          elements="H D T C Ci O Oi N Ne Ar He Si S Cl X",
          species="""N2          Ar          He          Ne
                     CH4(2)      O2(3)       CO2(4)      H2O(5)
                     H2(6)       CO(7)       C2H6(8)     CH2O(9)
                     CH3(10)     C3H8(11)    H(12)       C2H5(13)
                     CH3OH(14)   HCO(15)     CH3CHO(16)  OH(17)
                     C2H4(18)    HO2(52)     HOCO(53)    CHO2(54)
                     CH2OH(57)   CH3O(58)    CH2O2(69)   HOOH(136)
                     OCO(140)    CH3O2(146)  CH3O2(147)  CH4O3(170)
                     CH2O3(231)  CHO3(250)""",
          reactions='gas-*',
          transport='Mix',
          initial_state=state(temperature=300.0, pressure=OneAtm))

ideal_interface(name='surface1',
                elements="H D T C Ci O Oi N Ne Ar He Si S Cl X",
                species="""X(1)        HX(19)      OX(20)      OCX(21)
                          CH3X(22)    HOX(23)     HOCXO(25)   CHX(26)
                          CXHO(27)    CH4X(33)    CO2X(34)    H2OX(35)
                          H2X(36)     COX(37)     C2H5X(38)   C2H6X(39)
                          CH2OX(40)   CH3OX(44)   CH3OX(45)   CH3OHX(46)
                          C2H4X(51)   CH2X(134)   HO2X(135)   SX(139)
                          SX(144)     SX(145)     SX(168)     CHO2X(198)
                          SX(199)     CHO3X(230)  SX(247)     HOOHX(307)
                          SX(395)     SX(396)""",
                site_density=2.9e-09,
                phases="gas",
          reactions='surface1-*',
                initial_state=state(temperature=300.0, pressure=OneAtm))

#-------------------------------------------------------------------------------
# Element data
#-------------------------------------------------------------------------------

element(symbol=u'Ci', atomic_mass=13.003)
element(symbol=u'D', atomic_mass=2.014)
element(symbol=u'Oi', atomic_mass=18.0)
element(symbol=u'T', atomic_mass=3.016)
element(symbol=u'X', atomic_mass=195.083)
#-------------------------------------------------------------------------------
# Species data
#-------------------------------------------------------------------------------

species(name=u'N2',
        atoms='N:2',
        thermo=(NASA([200.00, 1000.00],
                     [ 3.53101000E+00, -1.23661000E-04, -5.02999000E-07,
                       2.43531000E-09, -1.40881000E-12, -1.04698000E+03,
                       2.96747000E+00]),
                NASA([1000.00, 6000.00],
                     [ 2.95258000E+00,  1.39690000E-03, -4.92632000E-07,
                       7.86010000E-11, -4.60755000E-15, -9.23949000E+02,
                       5.87189000E+00])),
        transport=gas_transport(geom='linear',
                                diam=3.621,
                                well_depth=97.53,
                                polar=1.76,
                                rot_relax=4.0))

species(name=u'Ar',
        atoms='Ar:1',
        thermo=(NASA([200.00, 1000.00],
                     [ 2.50000000E+00,  0.00000000E+00,  0.00000000E+00,
                       0.00000000E+00,  0.00000000E+00, -7.45375000E+02,
                       4.37967000E+00]),
                NASA([1000.00, 6000.00],
                     [ 2.50000000E+00,  0.00000000E+00,  0.00000000E+00,
                       0.00000000E+00,  0.00000000E+00, -7.45375000E+02,
                       4.37967000E+00])),
        transport=gas_transport(geom='atom',
                                diam=3.33,
                                well_depth=136.501))

species(name=u'He',
        atoms='He:1',
        thermo=(NASA([200.00, 1000.00],
                     [ 2.50000000E+00,  0.00000000E+00,  0.00000000E+00,
                       0.00000000E+00,  0.00000000E+00, -7.45375000E+02,
                       9.28724000E-01]),
                NASA([1000.00, 6000.00],
                     [ 2.50000000E+00,  0.00000000E+00,  0.00000000E+00,
                       0.00000000E+00,  0.00000000E+00, -7.45375000E+02,
                       9.28724000E-01])),
        transport=gas_transport(geom='atom',
                                diam=2.576,
                                well_depth=10.2))

species(name=u'Ne',
        atoms='Ne:1',
        thermo=(NASA([200.00, 1000.00],
                     [ 2.50000000E+00,  0.00000000E+00,  0.00000000E+00,
                       0.00000000E+00,  0.00000000E+00, -7.45375000E+02,
                       3.35532000E+00]),
                NASA([1000.00, 6000.00],
                     [ 2.50000000E+00,  0.00000000E+00,  0.00000000E+00,
                       0.00000000E+00,  0.00000000E+00, -7.45375000E+02,
                       3.35532000E+00])),
        transport=gas_transport(geom='atom',
                                diam=3.758,
                                well_depth=148.6))

species(name=u'CH4(2)',
        atoms='C:1 H:4',
        thermo=(NASA([100.00, 1084.15],
                     [ 4.20540072E+00, -5.35540640E-03,  2.51117636E-05,
                      -2.13755910E-08,  5.97496145E-12, -1.01619427E+04,
                      -9.21226951E-01]),
                NASA([1084.15, 5000.00],
                     [ 9.08349401E-01,  1.14539479E-02, -4.57166053E-06,
                       8.29173612E-10, -5.66300105E-14, -9.72001110E+03,
                       1.39926204E+01])),
        transport=gas_transport(geom='nonlinear',
                                diam=3.746,
                                well_depth=141.4,
                                polar=2.6,
                                rot_relax=13.0))

species(name=u'O2(3)',
        atoms='O:2',
        thermo=(NASA([100.00, 1074.56],
                     [ 3.53732118E+00, -1.21570207E-03,  5.31615377E-06,
                      -4.89440387E-09,  1.45843816E-12, -1.03858843E+03,
                       4.68368631E+00]),
                NASA([1074.56, 5000.00],
                     [ 3.15382772E+00,  1.67803228E-03, -7.69967779E-07,
                       1.51273960E-10, -1.08781182E-14, -1.04082030E+03,
                       6.16751919E+00])),
        transport=gas_transport(geom='linear',
                                diam=3.467,
                                well_depth=106.7))

species(name=u'CO2(4)',
        atoms='C:1 O:2',
        thermo=(NASA([100.00, 978.22],
                     [ 3.28083821E+00,  2.50193291E-03,  8.08164577E-06,
                      -1.20506695E-08,  4.66526645E-12, -4.84008301E+04,
                       6.00083693E+00]),
                NASA([978.22, 5000.00],
                     [ 4.67429780E+00,  2.60958835E-03, -9.85659769E-07,
                       1.95706729E-10, -1.49830320E-14, -4.89512267E+04,
                      -2.11090702E+00])),
        transport=gas_transport(geom='linear',
                                diam=3.941,
                                well_depth=195.201))

species(name=u'H2O(5)',
        atoms='H:2 O:1',
        thermo=(NASA([100.00, 1130.25],
                     [ 4.05763720E+00, -7.87951343E-04,  2.90882564E-06,
                      -1.47524910E-09,  2.12866372E-13, -3.02815867E+04,
                      -3.11369025E-01]),
                NASA([1130.25, 5000.00],
                     [ 2.84324104E+00,  2.75110073E-03, -7.81040007E-07,
                       1.07245603E-10, -5.79408217E-15, -2.99586086E+04,
                       5.91047337E+00])),
        transport=gas_transport(geom='nonlinear',
                                diam=2.641,
                                well_depth=809.102,
                                polar=1.76,
                                rot_relax=4.0))

species(name=u'H2(6)',
        atoms='H:2',
        thermo=(NASA([100.00, 1959.08],
                     [ 3.43536411E+00,  2.12710383E-04, -2.78625110E-07,
                       3.40267219E-10, -7.76032129E-14, -1.03135984E+03,
                      -3.90841731E+00]),
                NASA([1959.08, 5000.00],
                     [ 2.78816619E+00,  5.87640475E-04,  1.59010635E-07,
                      -5.52739465E-11,  4.34311304E-15, -5.96144481E+02,
                       1.12730527E-01])),
        transport=gas_transport(geom='linear',
                                diam=2.833,
                                well_depth=59.7))

species(name=u'CO(7)',
        atoms='C:1 O:1',
        thermo=(NASA([100.00, 1571.64],
                     [ 3.56837982E+00, -8.52124063E-04,  2.48917390E-06,
                      -1.56330672E-09,  3.13594213E-13, -1.42842549E+04,
                       3.57912239E+00]),
                NASA([1571.64, 5000.00],
                     [ 2.91306987E+00,  1.64657389E-03, -6.88612820E-07,
                       1.21036930E-10, -7.84014743E-15, -1.41808862E+04,
                       6.71043900E+00])),
        transport=gas_transport(geom='linear',
                                diam=3.69,
                                well_depth=91.7,
                                polar=1.76,
                                rot_relax=4.0))

species(name=u'C2H6(8)',
        atoms='C:2 H:6',
        thermo=(NASA([100.00, 1012.42],
                     [ 3.72239308E+00,  1.65083640E-03,  3.44175601E-05,
                      -3.76858321E-08,  1.24450696E-11, -1.15575902E+04,
                       4.68247939E+00]),
                NASA([1012.42, 5000.00],
                     [ 2.82848184E+00,  1.73040581E-02, -6.73334315E-06,
                       1.23742041E-09, -8.65676548E-14, -1.19978077E+04,
                       5.93812118E+00])),
        transport=gas_transport(geom='nonlinear',
                                diam=4.302,
                                well_depth=252.301,
                                rot_relax=1.5))

species(name=u'CH2O(9)',
        atoms='C:1 H:2 O:1',
        thermo=(NASA([100.00, 1070.44],
                     [ 4.12927829E+00, -4.08401633E-03,  2.03229448E-05,
                      -1.83524377E-08,  5.37976060E-12, -1.44294640E+04,
                       3.22418365E+00]),
                NASA([1070.44, 5000.00],
                     [ 2.21172293E+00,  7.94265924E-03, -3.34193191E-06,
                       6.28471724E-10, -4.40431711E-14, -1.42974450E+04,
                       1.13049069E+01])),
        transport=gas_transport(geom='nonlinear',
                                diam=3.59,
                                well_depth=498.002,
                                rot_relax=2.0))

species(name=u'CH3(10)',
        atoms='C:1 H:3',
        thermo=(NASA([100.00, 697.63],
                     [ 3.96043178E+00,  5.92930195E-04,  8.78578951E-06,
                      -9.88035524E-09,  3.63236942E-12,  1.64218817E+04,
                       3.39862787E-01]),
                NASA([697.63, 5000.00],
                     [ 3.09511262E+00,  5.55429714E-03, -1.88158748E-06,
                       3.13334732E-10, -2.05194931E-14,  1.65426190E+04,
                       4.20297474E+00])),
        transport=gas_transport(geom='nonlinear',
                                diam=3.8,
                                well_depth=144.001))

species(name=u'C3H8(11)',
        atoms='C:3 H:8',
        thermo=(NASA([100.00, 989.99],
                     [ 3.06337235E+00,  1.29213276E-02,  3.47037401E-05,
                      -4.70952219E-08,  1.71386763E-11, -1.43905793E+04,
                       1.07835211E+01]),
                NASA([989.99, 5000.00],
                     [ 5.60435845E+00,  2.19529500E-02, -8.22084738E-06,
                       1.50104968E-09, -1.05636167E-13, -1.58393862E+04,
                      -6.22599672E+00])),
        transport=gas_transport(geom='nonlinear',
                                diam=4.982,
                                well_depth=266.801,
                                rot_relax=1.0))

species(name=u'H(12)',
        atoms='H:1',
        thermo=(NASA([100.00, 4383.16],
                     [ 2.50000000E+00, -2.38914167E-13,  3.12709494E-16,
                      -1.33367320E-19,  1.74989654E-23,  2.54742178E+04,
                      -4.44972897E-01]),
                NASA([4383.16, 5000.00],
                     [ 2.50003447E+00, -3.04996987E-08,  1.01101187E-11,
                      -1.48796738E-15,  8.20356170E-20,  2.54741866E+04,
                      -4.45191184E-01])),
        transport=gas_transport(geom='atom',
                                diam=2.05,
                                well_depth=145.0))

species(name=u'C2H5(13)',
        atoms='C:2 H:5',
        thermo=(NASA([100.00, 1006.87],
                     [ 3.68745380E+00,  3.06903510E-03,  2.55868228E-05,
                      -2.94070210E-08,  9.94049079E-12,  1.31153653E+04,
                       6.96689006E+00]),
                NASA([1006.87, 5000.00],
                     [ 3.53785893E+00,  1.37310809E-02, -5.29559886E-06,
                       9.71471661E-10, -6.80280220E-14,  1.26351584E+04,
                       5.15538530E+00])),
        transport=gas_transport(geom='nonlinear',
                                diam=4.302,
                                well_depth=252.301,
                                rot_relax=1.5))

species(name=u'CH3OH(14)',
        atoms='C:1 H:4 O:1',
        thermo=(NASA([100.00, 1035.75],
                     [ 3.84006221E+00,  1.38241909E-03,  1.91667221E-05,
                      -2.01568699E-08,  6.39102422E-12, -2.56083087E+04,
                       5.90978110E+00]),
                NASA([1035.75, 5000.00],
                     [ 2.79184262E+00,  1.15827858E-02, -4.51551962E-06,
                       8.21206786E-10, -5.67063316E-14, -2.57211672E+04,
                       9.41061788E+00])),
        transport=gas_transport(geom='nonlinear',
                                diam=3.626,
                                well_depth=481.802,
                                rot_relax=1.0))

species(name=u'HCO(15)',
        atoms='C:1 H:1 O:1',
        thermo=(NASA([100.00, 1112.10],
                     [ 4.05936498E+00, -1.73847479E-03,  9.14984441E-06,
                      -8.01135632E-09,  2.25738876E-12,  3.84377613E+03,
                       3.32449376E+00]),
                NASA([1112.10, 5000.00],
                     [ 3.05135606E+00,  4.11707384E-03, -1.75586963E-06,
                       3.29304046E-10, -2.29175030E-14,  3.93008180E+03,
                       7.67467582E+00])),
        transport=gas_transport(geom='nonlinear',
                                diam=3.59,
                                well_depth=498.002))

species(name=u'CH3CHO(16)',
        atoms='C:2 H:4 O:1',
        thermo=(NASA([100.00, 1028.81],
                     [ 3.57992397E+00,  5.18983474E-03,  2.26897496E-05,
                      -2.73742644E-08,  9.28479682E-12, -2.13697374E+04,
                       8.96971567E+00]),
                NASA([1028.81, 5000.00],
                     [ 4.08563906E+00,  1.39061194E-02, -5.59370172E-06,
                       1.04609264E-09, -7.38738518E-14, -2.20391345E+04,
                       3.76801423E+00])),
        transport=gas_transport(geom='nonlinear',
                                diam=3.97,
                                well_depth=436.001,
                                rot_relax=2.0))

species(name=u'OH(17)',
        atoms='H:1 O:1',
        thermo=(NASA([100.00, 1145.76],
                     [ 3.51456841E+00,  2.92731942E-05, -5.32149835E-07,
                       1.01947431E-09, -3.85939061E-13,  3.41425418E+03,
                       2.10434749E+00]),
                NASA([1145.76, 5000.00],
                     [ 3.07193709E+00,  6.04020086E-04, -1.39807303E-08,
                      -2.13440498E-11,  2.48061111E-15,  3.57938799E+03,
                       4.57801556E+00])),
        transport=gas_transport(geom='linear',
                                diam=2.75,
                                well_depth=80.0))

species(name=u'C2H4(18)',
        atoms='C:2 H:4',
        thermo=(NASA([100.00, 979.37],
                     [ 3.97469045E+00, -4.75813325E-03,  4.16772624E-05,
                      -4.51377676E-08,  1.54218287E-11,  4.91540855E+03,
                       3.62439976E+00]),
                NASA([979.37, 5000.00],
                     [ 3.55670229E+00,  1.10625819E-02, -4.17009559E-06,
                       7.85564219E-10, -5.70042086E-14,  4.32042473E+03,
                       2.17665377E+00])),
        transport=gas_transport(geom='nonlinear',
                                diam=3.971,
                                well_depth=280.801,
                                rot_relax=1.5))

species(name=u'HO2(52)',
        atoms='H:1 O:2',
        thermo=(NASA([100.00, 1000.24],
                     [ 4.02425861E+00, -1.64549504E-03,  1.05110773E-05,
                      -1.06993350E-08,  3.49387579E-12,  2.34739940E+02,
                       4.70057285E+00]),
                NASA([1000.24, 5000.00],
                     [ 3.62866972E+00,  3.05389584E-03, -1.21131943E-06,
                       2.29641965E-10, -1.65063959E-14,  1.57931174E+02,
                       5.82961483E+00])),
        transport=gas_transport(geom='nonlinear',
                                diam=3.458,
                                well_depth=107.4,
                                rot_relax=1.0))

species(name=u'HOCO(53)',
        atoms='C:1 H:1 O:2',
        thermo=(NASA([100.00, 964.15],
                     [ 3.57767945E+00,  4.99244892E-03,  1.17076300E-05,
                      -1.99872899E-08,  8.20517454E-12, -2.33965401E+04,
                       8.08911142E+00]),
                NASA([964.15, 5000.00],
                     [ 6.82921370E+00,  2.24144897E-03, -7.19428869E-07,
                       1.57558307E-10, -1.36948158E-14, -2.45226644E+04,
                      -1.00673990E+01])),
        transport=gas_transport(geom='nonlinear',
                                diam=3.59,
                                well_depth=498.0,
                                rot_relax=2.0))

species(name=u'CHO2(54)',
        atoms='C:1 H:1 O:2',
        thermo=(NASA([100.00, 1057.62],
                     [ 3.56693716E+00,  7.37391657E-03,  1.23411003E-06,
                      -6.05191329E-09,  2.52686409E-12, -1.66682341E+04,
                       8.24684453E+00]),
                NASA([1057.62, 5000.00],
                     [ 5.51467504E+00,  4.87385294E-03, -2.12203734E-06,
                       4.14215926E-10, -2.99878448E-14, -1.73523980E+04,
                      -2.54568974E+00])),
        transport=gas_transport(geom='nonlinear',
                                diam=3.59,
                                well_depth=498.0,
                                rot_relax=2.0))

species(name=u'CH2OH(57)',
        atoms='C:1 H:3 O:1',
        thermo=(NASA([100.00, 1015.48],
                     [ 3.61905813E+00,  6.28691312E-03,  5.57468797E-06,
                      -9.77892565E-09,  3.69467023E-12, -3.32162412E+03,
                       6.61711719E+00]),
                NASA([1015.48, 5000.00],
                     [ 4.77199556E+00,  6.78476310E-03, -2.60444492E-06,
                       4.77569185E-10, -3.34612248E-14, -3.81560640E+03,
                      -2.42174819E-01])),
        transport=gas_transport(geom='nonlinear',
                                diam=3.69,
                                well_depth=417.002,
                                dipole=1.7,
                                rot_relax=2.0))

species(name=u'CH3O(58)',
        atoms='C:1 H:3 O:1',
        thermo=(NASA([100.00, 985.46],
                     [ 3.95612920E+00, -3.06310406E-03,  3.06883846E-05,
                      -3.34123321E-08,  1.13928817E-11,  1.19253617E+03,
                       4.69435378E+00]),
                NASA([985.46, 5000.00],
                     [ 3.74492014E+00,  8.52627590E-03, -3.28790848E-06,
                       6.23964954E-10, -4.53276472E-14,  7.13053773E+02,
                       3.06622078E+00])),
        transport=gas_transport(geom='nonlinear',
                                diam=3.69,
                                well_depth=417.002,
                                dipole=1.7,
                                rot_relax=2.0))

species(name=u'CH2O2(69)',
        atoms='C:1 H:2 O:2',
        thermo=(NASA([100.00, 993.73],
                     [ 3.76240519E+00, -9.43849897E-04,  3.38778464E-05,
                      -4.04983181E-08,  1.43986430E-11, -4.68212102E+04,
                       7.63276247E+00]),
                NASA([993.73, 5000.00],
                     [ 5.64500305E+00,  7.55181966E-03, -3.20851348E-06,
                       6.58918818E-10, -5.05055029E-14, -4.79890024E+04,
                      -5.43104436E+00])),
        transport=gas_transport(geom='nonlinear',
                                diam=3.626,
                                well_depth=481.8,
                                dipole=1.7,
                                rot_relax=1.0))

species(name=u'HOOH(136)',
        atoms='H:2 O:2',
        thermo=(NASA([100.00, 1005.77],
                     [ 3.81666650E+00,  2.71170060E-03,  6.17781977E-06,
                      -8.24871834E-09,  2.92678168E-12, -1.76922542E+04,
                       5.38572985E+00]),
                NASA([1005.77, 5000.00],
                     [ 4.14709440E+00,  4.72699093E-03, -1.79322910E-06,
                       3.26126082E-10, -2.27314571E-14, -1.79271194E+04,
                       2.95254574E+00])),
        transport=gas_transport(geom='nonlinear',
                                diam=4.196,
                                well_depth=289.3))

species(name=u'OCO(140)',
        atoms='C:1 H:4 O:2',
        thermo=(NASA([100.00, 894.10],
                     [ 2.88385292E+00,  7.57480349E-03,  5.50794101E-05,
                      -9.34513271E-08,  4.16333127E-11, -4.93732325E+04,
                       1.12133157E+01]),
                NASA([894.10, 5000.00],
                     [ 1.68605497E+01, -9.64319453E-03,  7.94866031E-06,
                      -1.62836085E-09,  1.09847823E-13, -5.36836221E+04,
                      -6.47796358E+01])),
        transport=gas_transport(geom='nonlinear',
                                diam=5.898,
                                well_depth=436.691))

species(name=u'CH3O2(146)',
        atoms='C:1 H:3 O:2',
        thermo=(NASA([100.00, 944.18],
                     [ 3.38978031E+00,  5.88292196E-03,  2.76826260E-05,
                      -4.16163464E-08,  1.67433894E-11, -2.18494285E+04,
                       1.04839621E+01]),
                NASA([944.18, 5000.00],
                     [ 8.14607133E+00,  4.87890544E-03, -1.13886721E-06,
                       2.10328111E-10, -1.79638914E-14, -2.36009988E+04,
                      -1.67085102E+01])),
        transport=gas_transport(geom='nonlinear',
                                diam=4.41,
                                well_depth=470.6,
                                rot_relax=1.5))

species(name=u'CH3O2(147)',
        atoms='C:1 H:3 O:2',
        thermo=(NASA([100.00, 1261.91],
                     [ 2.70939631E+00,  2.54993018E-02, -3.14581340E-05,
                       1.89353734E-08, -4.23677504E-12, -2.66538216E+04,
                       1.16233107E+01]),
                NASA([1261.91, 5000.00],
                     [ 8.67770786E+00,  2.77365604E-03,  8.08981041E-08,
                      -1.17581162E-10,  1.15166167E-14, -2.78569752E+04,
                      -1.73576109E+01])),
        transport=gas_transport(geom='nonlinear',
                                diam=5.898,
                                well_depth=436.691))

species(name=u'CH4O3(170)',
        atoms='C:1 H:4 O:3',
        thermo=(NASA([100.00, 844.28],
                     [ 2.69689596E+00,  3.43589775E-02, -5.88051251E-05,
                       5.90143953E-08, -2.25201355E-11, -7.22065656E+04,
                       1.45765215E+01]),
                NASA([844.28, 5000.00],
                     [ 2.93917480E+00,  2.00243857E-02, -9.90879646E-06,
                       1.90444681E-09, -1.31174764E-13, -7.17774998E+04,
                       1.62319859E+01])),
        transport=gas_transport(geom='nonlinear',
                                diam=6.621,
                                well_depth=506.876))

species(name=u'CH2O3(231)',
        atoms='C:1 H:2 O:3',
        thermo=(NASA([100.00, 956.74],
                     [ 2.98121452E+00,  1.14382895E-02,  2.77967873E-05,
                      -4.94728374E-08,  2.08012185E-11, -7.51362689E+04,
                       1.09455486E+01]),
                NASA([956.74, 5000.00],
                     [ 1.18951788E+01,  1.71631925E-03, -1.48101885E-07,
                       9.26322009E-11, -1.38647279E-14, -7.81026627E+04,
                      -3.82536000E+01])),
        transport=gas_transport(geom='nonlinear',
                                diam=5.425,
                                well_depth=432.363))

species(name=u'CHO3(250)',
        atoms='C:1 H:1 O:3',
        thermo=(NASA([100.00, 968.19],
                     [ 3.28601163E+00,  9.07582191E-03,  1.53512490E-05,
                      -2.86378516E-08,  1.19716449E-11, -4.58350944E+04,
                       1.10209647E+01]),
                NASA([968.19, 5000.00],
                     [ 8.68692336E+00,  3.22539966E-03, -1.09073820E-06,
                       2.46295264E-10, -2.15819215E-14, -4.76525285E+04,
                      -1.88455428E+01])),
        transport=gas_transport(geom='nonlinear',
                                diam=5.425,
                                well_depth=432.363))

species(name=u'X(1)',
        atoms='X:1',
        thermo=(NASA([100.00, 1554.81],
                     [ 7.10134880E-03, -4.25615041E-05,  8.98521156E-08,
                      -7.80182565E-11,  2.32462166E-14, -8.76099414E-01,
                      -3.11209498E-02]),
                NASA([1554.81, 5000.00],
                     [ 1.60301287E-01, -2.52237396E-04,  1.14182282E-07,
                      -1.21473809E-11,  3.85806589E-16, -7.08108147E+01,
                      -9.09535600E-01])))

species(name=u'HX(19)',
        atoms='H:1 X:1',
        thermo=(NASA([100.00, 951.66],
                     [-1.88470778E-01, -1.63480661E-04,  1.75820945E-05,
                      -2.42737414E-08,  9.57957909E-12, -5.72027557E+03,
                       7.59206687E-01]),
                NASA([951.66, 5000.00],
                     [ 2.51785399E+00, -4.39574561E-04,  5.23048873E-07,
                      -6.81809505E-11,  1.39691886E-15, -6.73797576E+03,
                      -1.48037978E+01])))

species(name=u'OX(20)',
        atoms='O:1 X:1',
        thermo=(NASA([100.00, 882.00],
                     [-7.33119134E-01,  1.81763808E-02, -3.59445030E-05,
                       3.20083301E-08, -1.05808106E-11,  5.66710600E+02,
                       1.91180371E+00]),
                NASA([882.00, 5000.00],
                     [ 1.88984825E+00,  2.00542933E-03, -1.17177476E-06,
                       2.29156422E-10, -1.53025884E-14,  2.70316078E+02,
                      -9.47042257E+00])))

species(name=u'OCX(21)',
        atoms='C:1 O:1 X:1',
        thermo=(NASA([100.00, 899.15],
                     [-1.41767399E+00,  3.95857243E-02, -9.08047406E-05,
                       9.00368667E-08, -3.19105945E-11, -1.83985834E+04,
                       5.13752844E+00]),
                NASA([899.15, 5000.00],
                     [ 8.98426745E-01,  8.70573041E-03, -4.96271511E-06,
                       9.38717570E-10, -6.11755112E-14, -1.79833176E+04,
                      -1.16477967E+00])))

species(name=u'CH3X(22)',
        atoms='C:1 H:3 X:1',
        thermo=(NASA([100.00, 874.52],
                     [-1.36312771E+00,  3.19046159E-02, -4.84826068E-05,
                       3.88725916E-08, -1.21302050E-11,  1.26863477E+03,
                       4.15338599E+00]),
                NASA([874.52, 5000.00],
                     [ 2.98646405E+00,  8.89973083E-03, -3.68947229E-06,
                       6.59130605E-10, -4.35546706E-14,  6.26803111E+02,
                      -1.55677184E+01])))

species(name=u'HOX(23)',
        atoms='H:1 O:1 X:1',
        thermo=(NASA([100.00, 873.08],
                     [-7.96049393E-01,  2.06729006E-02, -3.97521537E-05,
                       3.78167061E-08, -1.33695056E-11, -1.51533757E+04,
                       2.62055144E+00]),
                NASA([873.08, 5000.00],
                     [ 7.21963243E-01,  6.58736212E-03, -3.30142995E-06,
                       6.29126544E-10, -4.25422169E-14, -1.51466636E+04,
                      -2.94050019E+00])))

species(name=u'HOCXO(25)',
        atoms='C:1 H:1 O:2 X:1',
        thermo=(NASA([100.00, 861.36],
                     [-2.13600642E+00,  5.20695978E-02, -9.51709660E-05,
                       8.33416942E-08, -2.76657552E-11, -4.59401970E+04,
                       7.47684901E+00]),
                NASA([861.36, 5000.00],
                     [ 4.89698394E+00,  9.93879670E-03, -5.31007963E-06,
                       1.02696366E-09, -6.98866312E-14, -4.68004449E+04,
                      -2.33641900E+01])))

species(name=u'CHX(26)',
        atoms='C:1 H:1 X:1',
        thermo=(NASA([100.00, 842.10],
                     [-5.56980639E-01,  1.43465026E-02, -2.40796343E-05,
                       2.33319790E-08, -8.66639298E-12,  1.94250323E+04,
                       1.22958068E+00]),
                NASA([842.10, 5000.00],
                     [-3.10095239E-02,  7.32535824E-03, -3.51683552E-06,
                       6.74981991E-10, -4.65517571E-14,  1.94968086E+04,
                      -2.65383760E-01])))

species(name=u'CXHO(27)',
        atoms='C:1 H:1 O:1 X:1',
        thermo=(NASA([100.00, 869.82],
                     [-1.39177387E+00,  3.56287692E-02, -6.82877170E-05,
                       6.39174425E-08, -2.23485395E-11, -1.56671549E+04,
                       4.71971058E+00]),
                NASA([869.82, 5000.00],