units(length='cm', time='s', quantity='mol', act_energy='kcal/mol')

ideal_gas(name='gas',
          elements="H D T C Ci O Oi N Ne Ar He Si S Cl X",
          species="""N2          Ar          He          Ne
                     CH4(2)      O2(3)       CO2(4)      H2O(5)
                     H2(6)       CO(7)       C2H6(8)     CH2O(9)
                     CH3(10)     C3H8(11)    H(12)       C2H5(13)
                     CH3OH(14)   HCO(15)     CH3CHO(16)  OH(17)
                     C2H4(18)    HO2(52)     C2H4O2(55)  CH2OH(57)
                     CH3O(58)    CH2O2(69)   C2H4O3(86)  DME(138)
                     OCO(143)    COCO(144)   CH3O2(188)  S(189)
                     OCOCO(196)  S(204)      CH4O3(205)  S(206)
                     S(213)      S(231)      S(282)      CH4O4(283)
                     C2H4O(324)  S(494)""",
          reactions='gas-*',
          transport='Mix',
          initial_state=state(temperature=300.0, pressure=OneAtm))

ideal_interface(name='surface1',
                elements="H D T C Ci O Oi N Ne Ar He Si S Cl X",
                species="""X(1)        HX(19)      OX(20)      OCX(21)
                          CH3X(22)    HOX(23)     HOCXO(25)   CHX(26)
                          CXHO(27)    CH4X(33)    CO2X(34)    H2OX(35)
                          H2X(36)     COX(37)     C2H5X(38)   C2H6X(39)
                          CH2OX(40)   CH3OX(44)   CH3OX(45)   CH3OHX(46)
                          C2H4OX(49)  C2H3X(50)   C2H4X(51)   CH2X(134)
                          HO2X(135)   SX(142)     SX(154)     CHO2X(164)
                          DMEX(172)   SX(185)     SX(186)     SX(197)
                          SX(203)     SX(215)     SX(216)     SX(226)
                          SX(234)     SX(274)     SX(281)     SX(297)
                          SX(341)     SX(343)     SX(402)     SX(403)
                          SX(404)     SX(418)     SX(435)     SX(437)
                          SX(461)     SX(462)     SX(492)     SX(515)
                          SX(616)     SX(633)     SX(634)     SX(706)
                          SX(707)     SX(708)     SX(756)     SX(816)
                          SX(817)     SX(883)     SX(945)""",
                site_density=2.9e-09,
                phases="gas",
          reactions='surface1-*',
                initial_state=state(temperature=300.0, pressure=OneAtm))

#-------------------------------------------------------------------------------
# Element data
#-------------------------------------------------------------------------------

element(symbol=u'Ci', atomic_mass=13.003)
element(symbol=u'D', atomic_mass=2.014)
element(symbol=u'Oi', atomic_mass=18.0)
element(symbol=u'T', atomic_mass=3.016)
element(symbol=u'X', atomic_mass=195.083)
#-------------------------------------------------------------------------------
# Species data
#-------------------------------------------------------------------------------

species(name=u'N2',
        atoms='N:2',
        thermo=(NASA([200.00, 1000.00],
                     [ 3.53101000E+00, -1.23661000E-04, -5.02999000E-07,
                       2.43531000E-09, -1.40881000E-12, -1.04698000E+03,
                       2.96747000E+00]),
                NASA([1000.00, 6000.00],
                     [ 2.95258000E+00,  1.39690000E-03, -4.92632000E-07,
                       7.86010000E-11, -4.60755000E-15, -9.23949000E+02,
                       5.87189000E+00])),
        transport=gas_transport(geom='linear',
                                diam=3.621,
                                well_depth=97.53,
                                polar=1.76,
                                rot_relax=4.0))

species(name=u'Ar',
        atoms='Ar:1',
        thermo=(NASA([200.00, 1000.00],
                     [ 2.50000000E+00,  0.00000000E+00,  0.00000000E+00,
                       0.00000000E+00,  0.00000000E+00, -7.45375000E+02,
                       4.37967000E+00]),
                NASA([1000.00, 6000.00],
                     [ 2.50000000E+00,  0.00000000E+00,  0.00000000E+00,
                       0.00000000E+00,  0.00000000E+00, -7.45375000E+02,
                       4.37967000E+00])),
        transport=gas_transport(geom='atom',
                                diam=3.33,
                                well_depth=136.501))

species(name=u'He',
        atoms='He:1',
        thermo=(NASA([200.00, 1000.00],
                     [ 2.50000000E+00,  0.00000000E+00,  0.00000000E+00,
                       0.00000000E+00,  0.00000000E+00, -7.45375000E+02,
                       9.28724000E-01]),
                NASA([1000.00, 6000.00],
                     [ 2.50000000E+00,  0.00000000E+00,  0.00000000E+00,
                       0.00000000E+00,  0.00000000E+00, -7.45375000E+02,
                       9.28724000E-01])),
        transport=gas_transport(geom='atom',
                                diam=2.576,
                                well_depth=10.2))

species(name=u'Ne',
        atoms='Ne:1',
        thermo=(NASA([200.00, 1000.00],
                     [ 2.50000000E+00,  0.00000000E+00,  0.00000000E+00,
                       0.00000000E+00,  0.00000000E+00, -7.45375000E+02,
                       3.35532000E+00]),
                NASA([1000.00, 6000.00],
                     [ 2.50000000E+00,  0.00000000E+00,  0.00000000E+00,
                       0.00000000E+00,  0.00000000E+00, -7.45375000E+02,
                       3.35532000E+00])),
        transport=gas_transport(geom='atom',
                                diam=3.758,
                                well_depth=148.6))

species(name=u'CH4(2)',
        atoms='C:1 H:4',
        thermo=(NASA([100.00, 1084.15],
                     [ 4.20540072E+00, -5.35540640E-03,  2.51117636E-05,
                      -2.13755910E-08,  5.97496145E-12, -1.01619427E+04,
                      -9.21226951E-01]),
                NASA([1084.15, 5000.00],
                     [ 9.08349401E-01,  1.14539479E-02, -4.57166053E-06,
                       8.29173612E-10, -5.66300105E-14, -9.72001110E+03,
                       1.39926204E+01])),
        transport=gas_transport(geom='nonlinear',
                                diam=3.746,
                                well_depth=141.4,
                                polar=2.6,
                                rot_relax=13.0))

species(name=u'O2(3)',
        atoms='O:2',
        thermo=(NASA([100.00, 1074.56],
                     [ 3.53732118E+00, -1.21570207E-03,  5.31615377E-06,
                      -4.89440387E-09,  1.45843816E-12, -1.03858843E+03,
                       4.68368631E+00]),
                NASA([1074.56, 5000.00],
                     [ 3.15382772E+00,  1.67803228E-03, -7.69967779E-07,
                       1.51273960E-10, -1.08781182E-14, -1.04082030E+03,
                       6.16751919E+00])),
        transport=gas_transport(geom='linear',
                                diam=3.467,
                                well_depth=106.7))

species(name=u'CO2(4)',
        atoms='C:1 O:2',
        thermo=(NASA([100.00, 978.22],
                     [ 3.28083821E+00,  2.50193291E-03,  8.08164577E-06,
                      -1.20506695E-08,  4.66526645E-12, -4.84008301E+04,
                       6.00083693E+00]),
                NASA([978.22, 5000.00],
                     [ 4.67429780E+00,  2.60958835E-03, -9.85659769E-07,
                       1.95706729E-10, -1.49830320E-14, -4.89512267E+04,
                      -2.11090702E+00])),
        transport=gas_transport(geom='linear',
                                diam=3.941,
                                well_depth=195.201))

species(name=u'H2O(5)',
        atoms='H:2 O:1',
        thermo=(NASA([100.00, 1130.25],
                     [ 4.05763720E+00, -7.87951343E-04,  2.90882564E-06,
                      -1.47524910E-09,  2.12866372E-13, -3.02815867E+04,
                      -3.11369025E-01]),
                NASA([1130.25, 5000.00],
                     [ 2.84324104E+00,  2.75110073E-03, -7.81040007E-07,
                       1.07245603E-10, -5.79408217E-15, -2.99586086E+04,
                       5.91047337E+00])),
        transport=gas_transport(geom='nonlinear',
                                diam=2.641,
                                well_depth=809.102,
                                polar=1.76,
                                rot_relax=4.0))

species(name=u'H2(6)',
        atoms='H:2',
        thermo=(NASA([100.00, 1959.08],
                     [ 3.43536411E+00,  2.12710383E-04, -2.78625110E-07,
                       3.40267219E-10, -7.76032129E-14, -1.03135984E+03,
                      -3.90841731E+00]),
                NASA([1959.08, 5000.00],
                     [ 2.78816619E+00,  5.87640475E-04,  1.59010635E-07,
                      -5.52739465E-11,  4.34311304E-15, -5.96144481E+02,
                       1.12730527E-01])),
        transport=gas_transport(geom='linear',
                                diam=2.833,
                                well_depth=59.7))

species(name=u'CO(7)',
        atoms='C:1 O:1',
        thermo=(NASA([100.00, 1571.64],
                     [ 3.56837982E+00, -8.52124063E-04,  2.48917390E-06,
                      -1.56330672E-09,  3.13594213E-13, -1.42842549E+04,
                       3.57912239E+00]),
                NASA([1571.64, 5000.00],
                     [ 2.91306987E+00,  1.64657389E-03, -6.88612820E-07,
                       1.21036930E-10, -7.84014743E-15, -1.41808862E+04,
                       6.71043900E+00])),
        transport=gas_transport(geom='linear',
                                diam=3.69,
                                well_depth=91.7,
                                polar=1.76,
                                rot_relax=4.0))

species(name=u'C2H6(8)',
        atoms='C:2 H:6',
        thermo=(NASA([100.00, 1012.42],
                     [ 3.72239308E+00,  1.65083640E-03,  3.44175601E-05,
                      -3.76858321E-08,  1.24450696E-11, -1.15575902E+04,
                       4.68247939E+00]),
                NASA([1012.42, 5000.00],
                     [ 2.82848184E+00,  1.73040581E-02, -6.73334315E-06,
                       1.23742041E-09, -8.65676548E-14, -1.19978077E+04,
                       5.93812118E+00])),
        transport=gas_transport(geom='nonlinear',
                                diam=4.302,
                                well_depth=252.301,
                                rot_relax=1.5))

species(name=u'CH2O(9)',
        atoms='C:1 H:2 O:1',
        thermo=(NASA([100.00, 1070.44],
                     [ 4.12927829E+00, -4.08401633E-03,  2.03229448E-05,
                      -1.83524377E-08,  5.37976060E-12, -1.44294640E+04,
                       3.22418365E+00]),
                NASA([1070.44, 5000.00],
                     [ 2.21172293E+00,  7.94265924E-03, -3.34193191E-06,
                       6.28471724E-10, -4.40431711E-14, -1.42974450E+04,
                       1.13049069E+01])),
        transport=gas_transport(geom='nonlinear',
                                diam=3.59,
                                well_depth=498.002,
                                rot_relax=2.0))

species(name=u'CH3(10)',
        atoms='C:1 H:3',
        thermo=(NASA([100.00, 697.63],
                     [ 3.96043178E+00,  5.92930195E-04,  8.78578951E-06,
                      -9.88035524E-09,  3.63236942E-12,  1.64218817E+04,
                       3.39862787E-01]),
                NASA([697.63, 5000.00],
                     [ 3.09511262E+00,  5.55429714E-03, -1.88158748E-06,
                       3.13334732E-10, -2.05194931E-14,  1.65426190E+04,
                       4.20297474E+00])),
        transport=gas_transport(geom='nonlinear',
                                diam=3.8,
                                well_depth=144.001))

species(name=u'C3H8(11)',
        atoms='C:3 H:8',
        thermo=(NASA([100.00, 989.99],
                     [ 3.06337235E+00,  1.29213276E-02,  3.47037401E-05,
                      -4.70952219E-08,  1.71386763E-11, -1.43905793E+04,
                       1.07835211E+01]),
                NASA([989.99, 5000.00],
                     [ 5.60435845E+00,  2.19529500E-02, -8.22084738E-06,
                       1.50104968E-09, -1.05636167E-13, -1.58393862E+04,
                      -6.22599672E+00])),
        transport=gas_transport(geom='nonlinear',
                                diam=4.982,
                                well_depth=266.801,
                                rot_relax=1.0))

species(name=u'H(12)',
        atoms='H:1',
        thermo=(NASA([100.00, 4383.16],
                     [ 2.50000000E+00, -2.38914167E-13,  3.12709494E-16,
                      -1.33367320E-19,  1.74989654E-23,  2.54742178E+04,
                      -4.44972897E-01]),
                NASA([4383.16, 5000.00],
                     [ 2.50003447E+00, -3.04996987E-08,  1.01101187E-11,
                      -1.48796738E-15,  8.20356170E-20,  2.54741866E+04,
                      -4.45191184E-01])),
        transport=gas_transport(geom='atom',
                                diam=2.05,
                                well_depth=145.0))

species(name=u'C2H5(13)',
        atoms='C:2 H:5',
        thermo=(NASA([100.00, 1006.87],
                     [ 3.68745380E+00,  3.06903510E-03,  2.55868228E-05,
                      -2.94070210E-08,  9.94049079E-12,  1.31153653E+04,
                       6.96689006E+00]),
                NASA([1006.87, 5000.00],
                     [ 3.53785893E+00,  1.37310809E-02, -5.29559886E-06,
                       9.71471661E-10, -6.80280220E-14,  1.26351584E+04,
                       5.15538530E+00])),
        transport=gas_transport(geom='nonlinear',
                                diam=4.302,
                                well_depth=252.301,
                                rot_relax=1.5))

species(name=u'CH3OH(14)',
        atoms='C:1 H:4 O:1',
        thermo=(NASA([100.00, 1035.75],
                     [ 3.84006221E+00,  1.38241909E-03,  1.91667221E-05,
                      -2.01568699E-08,  6.39102422E-12, -2.56083087E+04,
                       5.90978110E+00]),
                NASA([1035.75, 5000.00],
                     [ 2.79184262E+00,  1.15827858E-02, -4.51551962E-06,
                       8.21206786E-10, -5.67063316E-14, -2.57211672E+04,
                       9.41061788E+00])),
        transport=gas_transport(geom='nonlinear',
                                diam=3.626,
                                well_depth=481.802,
                                rot_relax=1.0))

species(name=u'HCO(15)',
        atoms='C:1 H:1 O:1',
        thermo=(NASA([100.00, 1112.10],
                     [ 4.05936498E+00, -1.73847479E-03,  9.14984441E-06,
                      -8.01135632E-09,  2.25738876E-12,  3.84377613E+03,
                       3.32449376E+00]),
                NASA([1112.10, 5000.00],
                     [ 3.05135606E+00,  4.11707384E-03, -1.75586963E-06,
                       3.29304046E-10, -2.29175030E-14,  3.93008180E+03,
                       7.67467582E+00])),
        transport=gas_transport(geom='nonlinear',
                                diam=3.59,
                                well_depth=498.002))

species(name=u'CH3CHO(16)',
        atoms='C:2 H:4 O:1',
        thermo=(NASA([100.00, 1028.81],
                     [ 3.57992397E+00,  5.18983474E-03,  2.26897496E-05,
                      -2.73742644E-08,  9.28479682E-12, -2.13697374E+04,
                       8.96971567E+00]),
                NASA([1028.81, 5000.00],
                     [ 4.08563906E+00,  1.39061194E-02, -5.59370172E-06,
                       1.04609264E-09, -7.38738518E-14, -2.20391345E+04,
                       3.76801423E+00])),
        transport=gas_transport(geom='nonlinear',
                                diam=3.97,
                                well_depth=436.001,
                                rot_relax=2.0))

species(name=u'OH(17)',
        atoms='H:1 O:1',
        thermo=(NASA([100.00, 1145.76],
                     [ 3.51456841E+00,  2.92731942E-05, -5.32149835E-07,
                       1.01947431E-09, -3.85939061E-13,  3.41425418E+03,
                       2.10434749E+00]),
                NASA([1145.76, 5000.00],
                     [ 3.07193709E+00,  6.04020086E-04, -1.39807303E-08,
                      -2.13440498E-11,  2.48061111E-15,  3.57938799E+03,
                       4.57801556E+00])),
        transport=gas_transport(geom='linear',
                                diam=2.75,
                                well_depth=80.0))

species(name=u'C2H4(18)',
        atoms='C:2 H:4',
        thermo=(NASA([100.00, 979.37],
                     [ 3.97469045E+00, -4.75813325E-03,  4.16772624E-05,
                      -4.51377676E-08,  1.54218287E-11,  4.91540855E+03,
                       3.62439976E+00]),
                NASA([979.37, 5000.00],
                     [ 3.55670229E+00,  1.10625819E-02, -4.17009559E-06,
                       7.85564219E-10, -5.70042086E-14,  4.32042473E+03,
                       2.17665377E+00])),
        transport=gas_transport(geom='nonlinear',
                                diam=3.971,
                                well_depth=280.801,
                                rot_relax=1.5))

species(name=u'HO2(52)',
        atoms='H:1 O:2',
        thermo=(NASA([100.00, 1000.24],
                     [ 4.02425861E+00, -1.64549504E-03,  1.05110773E-05,
                      -1.06993350E-08,  3.49387579E-12,  2.34739940E+02,
                       4.70057285E+00]),
                NASA([1000.24, 5000.00],
                     [ 3.62866972E+00,  3.05389584E-03, -1.21131943E-06,
                       2.29641965E-10, -1.65063959E-14,  1.57931174E+02,
                       5.82961483E+00])),
        transport=gas_transport(geom='nonlinear',
                                diam=3.458,
                                well_depth=107.4,
                                rot_relax=1.0))

species(name=u'C2H4O2(55)',
        atoms='C:2 H:4 O:2',
        thermo=(NASA([100.00, 1141.76],
                     [ 3.28125302E+00,  1.13178286E-02,  1.84485081E-05,
                      -2.41954066E-08,  7.75170459E-12, -4.46725574E+04,
                       1.20362991E+01]),
                NASA([1141.76, 5000.00],
                     [ 4.90974332E+00,  1.87532115E-02, -8.58341907E-06,
                       1.66850390E-09, -1.18614557E-13, -4.59009381E+04,
                       2.13041707E-01])),
        transport=gas_transport(geom='nonlinear',
                                diam=5.234,
                                well_depth=377.356))

species(name=u'CH2OH(57)',
        atoms='C:1 H:3 O:1',
        thermo=(NASA([100.00, 1015.48],
                     [ 3.61905813E+00,  6.28691312E-03,  5.57468797E-06,
                      -9.77892565E-09,  3.69467023E-12, -3.32162412E+03,
                       6.61711719E+00]),
                NASA([1015.48, 5000.00],
                     [ 4.77199556E+00,  6.78476310E-03, -2.60444492E-06,
                       4.77569185E-10, -3.34612248E-14, -3.81560640E+03,
                      -2.42174819E-01])),
        transport=gas_transport(geom='nonlinear',
                                diam=3.69,
                                well_depth=417.002,
                                dipole=1.7,
                                rot_relax=2.0))

species(name=u'CH3O(58)',
        atoms='C:1 H:3 O:1',
        thermo=(NASA([100.00, 985.46],
                     [ 3.95612920E+00, -3.06310406E-03,  3.06883846E-05,
                      -3.34123321E-08,  1.13928817E-11,  1.19253617E+03,
                       4.69435378E+00]),
                NASA([985.46, 5000.00],
                     [ 3.74492014E+00,  8.52627590E-03, -3.28790848E-06,
                       6.23964954E-10, -4.53276472E-14,  7.13053773E+02,
                       3.06622078E+00])),
        transport=gas_transport(geom='nonlinear',
                                diam=3.69,
                                well_depth=417.002,
                                dipole=1.7,
                                rot_relax=2.0))

species(name=u'CH2O2(69)',
        atoms='C:1 H:2 O:2',
        thermo=(NASA([100.00, 993.73],
                     [ 3.76240519E+00, -9.43849897E-04,  3.38778464E-05,
                      -4.04983181E-08,  1.43986430E-11, -4.68212102E+04,
                       7.63276247E+00]),
                NASA([993.73, 5000.00],
                     [ 5.64500305E+00,  7.55181966E-03, -3.20851348E-06,
                       6.58918818E-10, -5.05055029E-14, -4.79890024E+04,
                      -5.43104436E+00])),
        transport=gas_transport(geom='nonlinear',
                                diam=3.626,
                                well_depth=481.8,
                                dipole=1.7,
                                rot_relax=1.0))

species(name=u'C2H4O3(86)',
        atoms='C:2 H:4 O:3',
        thermo=(NASA([100.00, 928.13],
                     [ 2.35259779E+00,  1.70208959E-02,  5.40708487E-05,
                      -9.46962452E-08,  4.08370289E-11, -6.75191247E+04,
                       1.75191660E+01]),
                NASA([928.13, 5000.00],
                     [ 1.79200935E+01, -6.71915403E-04,  2.82815050E-06,
                      -5.42603772E-10,  2.90206476E-14, -7.25365224E+04,
                      -6.78860738E+01])),
        transport=gas_transport(geom='nonlinear',
                                diam=5.934,
                                well_depth=446.453))

species(name=u'DME(138)',
        atoms='C:2 H:6 O:1',
        thermo=(NASA([100.00, 1170.38],
                     [ 3.24108862E+00,  1.38084664E-02,  9.93056821E-06,
                      -1.47147400E-08,  4.62542167E-12, -2.37395981E+04,
                       9.23358779E+00]),
                NASA([1170.38, 5000.00],
                     [ 3.88838883E+00,  1.97267204E-02, -8.07482672E-06,
                       1.47699976E-09, -1.01102459E-13, -2.44479719E+04,
                       3.62994613E+00])),
        transport=gas_transport(geom='nonlinear',
                                diam=4.98,
                                well_depth=329.669))

species(name=u'OCO(143)',
        atoms='C:1 H:4 O:2',
        thermo=(NASA([100.00, 894.10],
                     [ 2.88385292E+00,  7.57480349E-03,  5.50794101E-05,
                      -9.34513271E-08,  4.16333127E-11, -4.93732325E+04,
                       1.12133157E+01]),
                NASA([894.10, 5000.00],
                     [ 1.68605497E+01, -9.64319453E-03,  7.94866031E-06,
                      -1.62836085E-09,  1.09847823E-13, -5.36836221E+04,
                      -6.47796358E+01])),
        transport=gas_transport(geom='nonlinear',
                                diam=5.898,
                                well_depth=436.691))

species(name=u'COCO(144)',
        atoms='C:2 H:6 O:2',
        thermo=(NASA([100.00, 916.51],
                     [ 2.31186546E+00,  2.23355322E-02,  3.35258088E-05,
                      -6.96445895E-08,  3.14490398E-11, -4.68597550E+04,
                       1.52951176E+01]),
                NASA([916.51, 5000.00],
                     [ 1.54931108E+01,  3.38528005E-03,  1.40310944E-06,
                      -3.52963291E-10,  2.08689218E-14, -5.08961635E+04,
                      -5.59868569E+01])),
        transport=gas_transport(geom='nonlinear',
                                diam=5.709,
                                well_depth=402.716))

species(name=u'CH3O2(188)',
        atoms='C:1 H:3 O:2',
        thermo=(NASA([100.00, 1261.91],
                     [ 2.70939631E+00,  2.54993018E-02, -3.14581340E-05,
                       1.89353734E-08, -4.23677504E-12, -2.66538216E+04,
                       1.16233107E+01]),
                NASA([1261.91, 5000.00],
                     [ 8.67770786E+00,  2.77365604E-03,  8.08981041E-08,
                      -1.17581162E-10,  1.15166167E-14, -2.78569752E+04,
                      -1.73576109E+01])),
        transport=gas_transport(geom='nonlinear',
                                diam=5.898,
                                well_depth=436.691))

species(name=u'S(189)',
        atoms='C:2 H:4 O:4',
        thermo=(NASA([100.00, 2943.99],
                     [ 3.38722475E+00,  3.04123574E-02, -1.61522103E-05,
                       3.34322959E-09, -2.49349010E-13, -9.04105115E+04,
                       1.68153575E+01]),
                NASA([2943.99, 5000.00],
                     [ 3.13950994E+01, -4.36710864E-03, -1.00206635E-07,
                       8.61009768E-11, -4.84407898E-15, -1.08320657E+05,
                      -1.50958667E+02])),
        transport=gas_transport(geom='nonlinear',
                                diam=6.65,
                                well_depth=515.378))

species(name=u'OCOCO(196)',
        atoms='C:2 H:6 O:3',
        thermo=(NASA([100.00, 899.96],
                     [ 1.29836742E+00,  3.07083865E-02,  6.20457814E-05,
                      -1.33826786E-07,  6.29715810E-11, -6.98970301E+04,
                       2.01523174E+01]),
                NASA([899.96, 5000.00],
                     [ 2.92349808E+01, -1.66448552E-02,  1.29401176E-05,
                      -2.60802812E-09,  1.73862586E-13, -7.80361148E+04,
                      -1.28963606E+02])),
        transport=gas_transport(geom='nonlinear',
                                diam=6.41,
                                well_depth=471.357))

species(name=u'S(204)',
        atoms='C:2 H:6 O:2',
        thermo=(NASA([100.00, 1099.30],
                     [ 2.35363709E+00,  3.17204285E-02, -1.81438741E-05,
                       2.55814379E-09,  9.21814829E-13, -5.48775385E+04,
                       1.61951154E+01]),
                NASA([1099.30, 5000.00],
                     [ 8.66062871E+00,  1.58334141E-02, -6.10217324E-06,
                       1.09929671E-09, -7.53904575E-14, -5.66909105E+04,
                      -1.67704290E+01])),
        transport=gas_transport(geom='nonlinear',
                                diam=6.245,
                                well_depth=456.211))

species(name=u'CH4O3(205)',
        atoms='C:1 H:4 O:3',
        thermo=(NASA([100.00, 844.28],
                     [ 2.69689596E+00,  3.43589775E-02, -5.88051251E-05,
                       5.90143953E-08, -2.25201355E-11, -7.22065656E+04,
                       1.45765215E+01]),
                NASA([844.28, 5000.00],
                     [ 2.93917480E+00,  2.00243857E-02, -9.90879646E-06,
                       1.90444681E-09, -1.31174764E-13, -7.17774998E+04,
                       1.62319859E+01])),
        transport=gas_transport(geom='nonlinear',
                                diam=6.621,
                                well_depth=506.876))

species(name=u'S(206)',
        atoms='C:2 H:6 O:3',
        thermo=(NASA([100.00, 2901.06],
                     [ 4.18967954E+00,  2.71660598E-02, -1.18812234E-05,
                       1.68619444E-09, -4.46363653E-14, -6.97930476E+04,
                       1.14535608E+01]),
                NASA([2901.06, 5000.00],
                     [ 4.12006552E+01, -1.30943489E-02,  3.36658076E-06,
                      -5.38021417E-10,  3.67538739E-14, -9.57995980E+04,
                      -2.14334027E+02])),
        transport=gas_transport(geom='nonlinear',
                                diam=6.44,
                                well_depth=473.551))

species(name=u'S(213)',
        atoms='C:2 H:6 O:4',
        thermo=(NASA([100.00, 1019.91],
                     [ 1.02067812E+00,  5.85392669E-02, -5.53130101E-05,
                       2.27005856E-08, -2.63036545E-12, -9.27264806E+04,
                       2.49404186E+01]),
                NASA([1019.91, 5000.00],
                     [ 1.59123721E+01,  1.20045863E-02, -4.33009805E-06,
                       7.86035100E-10, -5.56499557E-14, -9.63814442E+04,
                      -5.02233635E+01])),
        transport=gas_transport(geom='nonlinear',
                                diam=7.133,
                                well_depth=541.399))

species(name=u'S(231)',
        atoms='C:2 H:6 O:5',
        thermo=(NASA([100.00, 849.73],
                     [ 9.23347766E-01,  8.42977631E-02, -1.65842907E-04,
                       1.71346081E-07, -6.54873351E-11, -1.15563650E+05,
                       2.76931735E+01]),
                NASA([849.73, 5000.00],
                     [ 1.37204707E+00,  4.27241585E-02, -2.27941190E-05,
                       4.46211641E-09, -3.08556017E-13, -1.14215274E+05,
                       3.39843856E+01])),
        transport=gas_transport(geom='nonlinear',
                                diam=7.86,
                                well_depth=613.165))

species(name=u'S(282)',
        atoms='C:2 H:6 O:3',
        thermo=(NASA([100.00, 740.93],
                     [ 1.96199563E+00,  4.66608954E-02, -5.11950515E-05,
                       3.07381602E-08, -6.72504387E-12, -7.65632564E+04,
                       1.83678339E+01]),
                NASA([740.93, 5000.00],
                     [ 7.91250632E+00,  1.98688371E-02, -7.75061487E-06,
                       1.36181127E-09, -9.06063982E-14, -7.75914084E+04,
                      -9.54343189E+00])),
        transport=gas_transport(geom='nonlinear',
                                diam=6.974,
                                well_depth=525.825))

species(name=u'CH4O4(283)',
        atoms='C:1 H:4 O:4',
        thermo=(NASA([100.00, 924.72],
                     [ 1.92959379E+00,  5.10647179E-02, -8.66422836E-05,
                       7.54591960E-08, -2.46383373E-11, -9.32652149E+04,
                       1.69303485E+01]),
                NASA([924.72, 5000.00],
                     [ 6.84924682E+00,  1.56745118E-02, -6.34813988E-06,
                       1.07178704E-09, -6.66911749E-14, -9.35718121E+04,
                      -3.15723848E+00])),
        transport=gas_transport(geom='nonlinear',
                                diam=7.348,