units(length='cm', time='s', quantity='mol', act_energy='kcal/mol')

ideal_gas(name='gas',
          elements="H D T C Ci O Oi N Ne Ar He Si S Cl X",
          species="""N2          Ar          He          Ne
                     CH4(2)      O2(3)       CO2(4)      H2O(5)
                     H2(6)       CO(7)       C2H6(8)     CH2O(9)
                     CH3(10)     C3H8(11)    H(12)       C2H5(13)
                     CH3OH(14)   HCO(15)     CH3CHO(16)  OH(17)
                     C2H4(18)    HO2(52)""",
          reactions='gas-*',
          transport='Mix',
          initial_state=state(temperature=300.0, pressure=OneAtm))

ideal_interface(name='surface1',
                elements="H D T C Ci O Oi N Ne Ar He Si S Cl X",
                species="""X(1)        HX(19)      OX(20)      OCX(21)
                          CH3X(22)    HOX(23)     HOCXO(25)   CHX(26)
                          CXHO(27)    CH4X(33)    CO2X(34)    H2OX(35)
                          H2X(36)     COX(37)     C2H6X(39)   CH3OHX(46)
                          C2H4OX(49)  C2H4X(51)   CH2X(134)   HO2X(135)
                          CH2OX(138)  CHOX(153)   SX(155)     SX(159)
                          SX(167)""",
                site_density=2.9e-09,
                phases="gas",
          reactions='surface1-*',
                initial_state=state(temperature=300.0, pressure=OneAtm))

#-------------------------------------------------------------------------------
# Element data
#-------------------------------------------------------------------------------

element(symbol=u'Ci', atomic_mass=13.003)
element(symbol=u'D', atomic_mass=2.014)
element(symbol=u'Oi', atomic_mass=18.0)
element(symbol=u'T', atomic_mass=3.016)
element(symbol=u'X', atomic_mass=195.083)
#-------------------------------------------------------------------------------
# Species data
#-------------------------------------------------------------------------------

species(name=u'N2',
        atoms='N:2',
        thermo=(NASA([200.00, 1000.00],
                     [ 3.53101000E+00, -1.23661000E-04, -5.02999000E-07,
                       2.43531000E-09, -1.40881000E-12, -1.04698000E+03,
                       2.96747000E+00]),
                NASA([1000.00, 6000.00],
                     [ 2.95258000E+00,  1.39690000E-03, -4.92632000E-07,
                       7.86010000E-11, -4.60755000E-15, -9.23949000E+02,
                       5.87189000E+00])),
        transport=gas_transport(geom='linear',
                                diam=3.621,
                                well_depth=97.53,
                                polar=1.76,
                                rot_relax=4.0))

species(name=u'Ar',
        atoms='Ar:1',
        thermo=(NASA([200.00, 1000.00],
                     [ 2.50000000E+00,  0.00000000E+00,  0.00000000E+00,
                       0.00000000E+00,  0.00000000E+00, -7.45375000E+02,
                       4.37967000E+00]),
                NASA([1000.00, 6000.00],
                     [ 2.50000000E+00,  0.00000000E+00,  0.00000000E+00,
                       0.00000000E+00,  0.00000000E+00, -7.45375000E+02,
                       4.37967000E+00])),
        transport=gas_transport(geom='atom',
                                diam=3.33,
                                well_depth=136.501))

species(name=u'He',
        atoms='He:1',
        thermo=(NASA([200.00, 1000.00],
                     [ 2.50000000E+00,  0.00000000E+00,  0.00000000E+00,
                       0.00000000E+00,  0.00000000E+00, -7.45375000E+02,
                       9.28724000E-01]),
                NASA([1000.00, 6000.00],
                     [ 2.50000000E+00,  0.00000000E+00,  0.00000000E+00,
                       0.00000000E+00,  0.00000000E+00, -7.45375000E+02,
                       9.28724000E-01])),
        transport=gas_transport(geom='atom',
                                diam=2.576,
                                well_depth=10.2))

species(name=u'Ne',
        atoms='Ne:1',
        thermo=(NASA([200.00, 1000.00],
                     [ 2.50000000E+00,  0.00000000E+00,  0.00000000E+00,
                       0.00000000E+00,  0.00000000E+00, -7.45375000E+02,
                       3.35532000E+00]),
                NASA([1000.00, 6000.00],
                     [ 2.50000000E+00,  0.00000000E+00,  0.00000000E+00,
                       0.00000000E+00,  0.00000000E+00, -7.45375000E+02,
                       3.35532000E+00])),
        transport=gas_transport(geom='atom',
                                diam=3.758,
                                well_depth=148.6))

species(name=u'CH4(2)',
        atoms='C:1 H:4',
        thermo=(NASA([100.00, 1084.12],
                     [ 4.20541524E+00, -5.35557362E-03,  2.51123265E-05,
                      -2.13762843E-08,  5.97523937E-12, -1.01619433E+04,
                      -9.21279283E-01]),
                NASA([1084.12, 5000.00],
                     [ 9.08265721E-01,  1.14540858E-02, -4.57173828E-06,
                       8.29191671E-10, -5.66314895E-14, -9.71997444E+03,
                       1.39930944E+01])),
        transport=gas_transport(geom='nonlinear',
                                diam=3.746,
                                well_depth=141.4,
                                polar=2.6,
                                rot_relax=13.0))

species(name=u'O2(3)',
        atoms='O:2',
        thermo=(NASA([100.00, 1074.56],
                     [ 3.53732181E+00, -1.21570930E-03,  5.31617826E-06,
                      -4.89443424E-09,  1.45845042E-12, -1.03858846E+03,
                       4.68368406E+00]),
                NASA([1074.56, 5000.00],
                     [ 3.15382425E+00,  1.67803802E-03, -7.69971022E-07,
                       1.51274714E-10, -1.08781801E-14, -1.04081878E+03,
                       6.16753884E+00])),
        transport=gas_transport(geom='linear',
                                diam=3.467,
                                well_depth=106.7))

species(name=u'CO2(4)',
        atoms='C:1 O:2',
        thermo=(NASA([100.00, 978.21],
                     [ 3.28084634E+00,  2.50183460E-03,  8.08199998E-06,
                      -1.20511416E-08,  4.66547255E-12, -4.84008304E+04,
                       6.00080795E+00]),
                NASA([978.21, 5000.00],
                     [ 4.67426743E+00,  2.60964031E-03, -9.85689857E-07,
                       1.95713857E-10, -1.49836245E-14, -4.89512140E+04,
                      -2.11073617E+00])),
        transport=gas_transport(geom='linear',
                                diam=3.941,
                                well_depth=195.201))

species(name=u'H2O(5)',
        atoms='H:2 O:1',
        thermo=(NASA([100.00, 1130.24],
                     [ 4.05763610E+00, -7.87938871E-04,  2.90878480E-06,
                      -1.47520039E-09,  2.12847506E-13, -3.02815866E+04,
                      -3.11365027E-01]),
                NASA([1130.24, 5000.00],
                     [ 2.84324866E+00,  2.75108838E-03, -7.81033120E-07,
                       1.07244016E-10, -5.79395308E-15, -2.99586120E+04,
                       5.91043011E+00])),
        transport=gas_transport(geom='nonlinear',
                                diam=2.641,
                                well_depth=809.102,
                                polar=1.76,
                                rot_relax=4.0))

species(name=u'H2(6)',
        atoms='H:2',
        thermo=(NASA([100.00, 1959.08],
                     [ 3.43536412E+00,  2.12710353E-04, -2.78625043E-07,
                       3.40267167E-10, -7.76031998E-14, -1.03135984E+03,
                      -3.90841732E+00]),
                NASA([1959.08, 5000.00],
                     [ 2.78816583E+00,  5.87640942E-04,  1.59010417E-07,
                      -5.52739026E-11,  4.34310984E-15, -5.96144270E+02,
                       1.12732655E-01])),
        transport=gas_transport(geom='linear',
                                diam=2.833,
                                well_depth=59.7))

species(name=u'CO(7)',
        atoms='C:1 O:1',
        thermo=(NASA([100.00, 1571.63],
                     [ 3.56838038E+00, -8.52129500E-04,  2.48918819E-06,
                      -1.56331996E-09,  3.13598127E-13, -1.42842550E+04,
                       3.57912028E+00]),
                NASA([1571.63, 5000.00],
                     [ 2.91305202E+00,  1.64659937E-03, -6.88625686E-07,
                       1.21039677E-10, -7.84035796E-15, -1.41808768E+04,
                       6.71054299E+00])),
        transport=gas_transport(geom='linear',
                                diam=3.69,
                                well_depth=91.7,
                                polar=1.76,
                                rot_relax=4.0))

species(name=u'C2H6(8)',
        atoms='C:2 H:6',
        thermo=(NASA([100.00, 1012.42],
                     [ 3.72239291E+00,  1.65083841E-03,  3.44175530E-05,
                      -3.76858229E-08,  1.24450657E-11, -1.15575901E+04,
                       4.68247999E+00]),
                NASA([1012.42, 5000.00],
                     [ 2.82848257E+00,  1.73040568E-02, -6.73334245E-06,
                       1.23742024E-09, -8.65676410E-14, -1.19978080E+04,
                       5.93811707E+00])),
        transport=gas_transport(geom='nonlinear',
                                diam=4.302,
                                well_depth=252.301,
                                rot_relax=1.5))

species(name=u'CH2O(9)',
        atoms='C:1 H:2 O:1',
        thermo=(NASA([100.00, 1070.44],
                     [ 4.12927802E+00, -4.08401318E-03,  2.03229341E-05,
                      -1.83524244E-08,  5.37975522E-12, -1.44294640E+04,
                       3.22418463E+00]),
                NASA([1070.44, 5000.00],
                     [ 2.21172442E+00,  7.94265679E-03, -3.34193053E-06,
                       6.28471401E-10, -4.40431446E-14, -1.42974456E+04,
                       1.13048985E+01])),
        transport=gas_transport(geom='nonlinear',
                                diam=3.59,
                                well_depth=498.002,
                                rot_relax=2.0))

species(name=u'CH3(10)',
        atoms='C:1 H:3',
        thermo=(NASA([100.00, 697.71],
                     [ 3.96043098E+00,  5.92939934E-04,  8.78575390E-06,
                      -9.88030557E-09,  3.63234580E-12,  1.64218818E+04,
                       3.39865631E-01]),
                NASA([697.71, 5000.00],
                     [ 3.09511187E+00,  5.55429874E-03, -1.88158855E-06,
                       3.13335012E-10, -2.05195181E-14,  1.65426192E+04,
                       4.20297876E+00])),
        transport=gas_transport(geom='nonlinear',
                                diam=3.8,
                                well_depth=144.001))

species(name=u'C3H8(11)',
        atoms='C:3 H:8',
        thermo=(NASA([100.00, 989.99],
                     [ 3.06336167E+00,  1.29214561E-02,  3.47032808E-05,
                      -4.70946154E-08,  1.71384141E-11, -1.43905789E+04,
                       1.07835592E+01]),
                NASA([989.99, 5000.00],
                     [ 5.60440043E+00,  2.19528785E-02, -8.22080610E-06,
                       1.50103993E-09, -1.05635358E-13, -1.58394038E+04,
                      -6.22623300E+00])),
        transport=gas_transport(geom='nonlinear',
                                diam=4.982,
                                well_depth=266.801,
                                rot_relax=1.0))

species(name=u'H(12)',
        atoms='H:1',
        thermo=(NASA([100.00, 3459.60],
                     [ 2.50000000E+00,  9.24384602E-15, -1.36779837E-17,
                       6.66184769E-21, -1.00106912E-24,  2.54742178E+04,
                      -4.44972896E-01]),
                NASA([3459.60, 5000.00],
                     [ 2.49999999E+00,  9.20455546E-12, -3.58608293E-15,
                       6.15198922E-19, -3.92041801E-23,  2.54742178E+04,
                      -4.44972842E-01])),
        transport=gas_transport(geom='atom',
                                diam=2.05,
                                well_depth=145.0))

species(name=u'C2H5(13)',
        atoms='C:2 H:5',
        thermo=(NASA([100.00, 1006.87],
                     [ 3.68746539E+00,  3.06889693E-03,  2.55873112E-05,
                      -2.94076576E-08,  9.94076215E-12,  1.31153648E+04,
                       6.96684864E+00]),
                NASA([1006.87, 5000.00],
                     [ 3.53781010E+00,  1.37311636E-02, -5.29564638E-06,
                       9.71482858E-10, -6.80289490E-14,  1.26351790E+04,
                       5.15566048E+00])),
        transport=gas_transport(geom='nonlinear',
                                diam=4.302,
                                well_depth=252.301,
                                rot_relax=1.5))

species(name=u'CH3OH(14)',
        atoms='C:1 H:4 O:1',
        thermo=(NASA([100.00, 1035.75],
                     [ 3.84006214E+00,  1.38241998E-03,  1.91667191E-05,
                      -2.01568660E-08,  6.39102259E-12, -2.56083087E+04,
                       5.90978137E+00]),
                NASA([1035.75, 5000.00],
                     [ 2.79184298E+00,  1.15827852E-02, -4.51551928E-06,
                       8.21206706E-10, -5.67063250E-14, -2.57211674E+04,
                       9.41061586E+00])),
        transport=gas_transport(geom='nonlinear',
                                diam=3.626,
                                well_depth=481.802,
                                rot_relax=1.0))

species(name=u'HCO(15)',
        atoms='C:1 H:1 O:1',
        thermo=(NASA([100.00, 1112.10],
                     [ 4.05936407E+00, -1.73846452E-03,  9.14981041E-06,
                      -8.01131526E-09,  2.25737264E-12,  3.84377617E+03,
                       3.32449702E+00]),
                NASA([1112.10, 5000.00],
                     [ 3.05136186E+00,  4.11706437E-03, -1.75586433E-06,
                       3.29302821E-10, -2.29174030E-14,  3.93007923E+03,
                       7.67464289E+00])),
        transport=gas_transport(geom='nonlinear',
                                diam=3.59,
                                well_depth=498.002))

species(name=u'CH3CHO(16)',
        atoms='C:2 H:4 O:1',
        thermo=(NASA([100.00, 1028.81],
                     [ 3.57991319E+00,  5.18996203E-03,  2.26893060E-05,
                      -2.73736957E-08,  9.28455869E-12, -2.13697369E+04,
                       8.96975431E+00]),
                NASA([1028.81, 5000.00],
                     [ 4.08568882E+00,  1.39060358E-02, -5.59365394E-06,
                       1.04608143E-09, -7.38729265E-14, -2.20391558E+04,
                       3.76773341E+00])),
        transport=gas_transport(geom='nonlinear',
                                diam=3.97,
                                well_depth=436.001,
                                rot_relax=2.0))

species(name=u'OH(17)',
        atoms='H:1 O:1',
        thermo=(NASA([100.00, 1145.75],
                     [ 3.51456768E+00,  2.92814373E-05, -5.32176582E-07,
                       1.01950588E-09, -3.85951152E-13,  3.41425421E+03,
                       2.10435015E+00]),
                NASA([1145.75, 5000.00],
                     [ 3.07194246E+00,  6.04011411E-04, -1.39759127E-08,
                      -2.13451563E-11,  2.48070095E-15,  3.57938557E+03,
                       4.57798500E+00])),
        transport=gas_transport(geom='linear',
                                diam=2.75,
                                well_depth=80.0))

species(name=u'C2H4(18)',
        atoms='C:2 H:4',
        thermo=(NASA([100.00, 979.36],
                     [ 3.97471606E+00, -4.75844285E-03,  4.16783770E-05,
                      -4.51392516E-08,  1.54224761E-11,  4.91540746E+03,
                       3.62430844E+00]),
                NASA([979.36, 5000.00],
                     [ 3.55660610E+00,  1.10627464E-02, -4.17019079E-06,
                       7.85586770E-10, -5.70060829E-14,  4.32046489E+03,
                       2.17719479E+00])),
        transport=gas_transport(geom='nonlinear',
                                diam=3.971,
                                well_depth=280.801,
                                rot_relax=1.5))

species(name=u'HO2(52)',
        atoms='H:1 O:2',
        thermo=(NASA([100.00, 1000.25],
                     [ 4.02425547E+00, -1.64545752E-03,  1.05109441E-05,
                      -1.06991604E-08,  3.49380097E-12,  2.34740074E+02,
                       4.70058405E+00]),
                NASA([1000.25, 5000.00],
                     [ 3.62868258E+00,  3.05387401E-03, -1.21130686E-06,
                       2.29639000E-10, -1.65061502E-14,  1.57925751E+02,
                       5.82954238E+00])),
        transport=gas_transport(geom='nonlinear',
                                diam=3.458,
                                well_depth=107.4,
                                rot_relax=1.0))

species(name=u'X(1)',
        atoms='X:1',
        thermo=(NASA([100.00, 1554.80],
                     [ 7.10139498E-03, -4.25619522E-05,  8.98533016E-08,
                      -7.80193649E-11,  2.32465471E-14, -8.76101712E-01,
                      -3.11211229E-02]),
                NASA([1554.80, 5000.00],
                     [ 1.60299900E-01, -2.52235409E-04,  1.14181275E-07,
                      -1.21471653E-11,  3.85790025E-16, -7.08100885E+01,
                      -9.09527530E-01])))

species(name=u'HX(19)',
        atoms='H:1 X:1',
        thermo=(NASA([100.00, 951.66],
                     [-1.88464061E-01, -1.63562987E-04,  1.75823965E-05,
                      -2.42741525E-08,  9.57976277E-12, -5.72027585E+03,
                       7.59182806E-01]),
                NASA([951.66, 5000.00],
                     [ 2.51783158E+00, -4.39535860E-04,  5.23026306E-07,
                      -6.81755767E-11,  1.39647046E-15, -6.73796653E+03,
                      -1.48036720E+01])))

species(name=u'OX(20)',
        atoms='O:1 X:1',
        thermo=(NASA([100.00, 881.99],
                     [-7.33128267E-01,  1.81764969E-02, -3.59449508E-05,
                       3.20089761E-08, -1.05811181E-11, -2.84445547E+04,
                       1.91183594E+00]),
                NASA([881.99, 5000.00],
                     [ 1.88987054E+00,  2.00538980E-03, -1.17175128E-06,
                       2.29150754E-10, -1.53021107E-14, -2.87409584E+04,
                      -9.47054705E+00])))

species(name=u'OCX(21)',
        atoms='C:1 O:1 X:1',
        thermo=(NASA([100.00, 899.14],
                     [-1.41769897E+00,  3.95860388E-02, -9.08059386E-05,
                       9.00385698E-08, -3.19113922E-11, -2.23876314E+04,
                       5.13761673E+00]),
                NASA([899.14, 5000.00],
                     [ 8.98492688E-01,  8.70561424E-03, -4.96264641E-06,
                       9.38701045E-10, -6.11741219E-14, -2.19723930E+04,
                      -1.16514841E+00])))

species(name=u'CH3X(22)',
        atoms='C:1 H:3 X:1',
        thermo=(NASA([100.00, 874.54],
                     [-1.36311635E+00,  3.19044709E-02, -4.84820443E-05,
                       3.88717748E-08, -1.21298134E-11, -7.25890229E+02,
                       4.15334594E+00]),
                NASA([874.54, 5000.00],
                     [ 2.98643726E+00,  8.89977848E-03, -3.68950066E-06,
                       6.59137462E-10, -4.35552491E-14, -1.36771080E+03,
                      -1.55675689E+01])))

species(name=u'HOX(23)',
        atoms='H:1 O:1 X:1',
        thermo=(NASA([100.00, 873.08],
                     [-7.96056912E-01,  2.06729966E-02, -3.97525267E-05,
                       3.78172485E-08, -1.33697659E-11, -2.96590082E+04,
                       2.62057794E+00]),
                NASA([873.08, 5000.00],
                     [ 7.21980853E-01,  6.58733078E-03, -3.30141129E-06,
                       6.29122032E-10, -4.25418361E-14, -2.96523033E+04,
                      -2.94059846E+00])))

species(name=u'HOCXO(25)',
        atoms='C:1 H:1 O:2 X:1',
        thermo=(NASA([100.00, 861.36],
                     [-2.13600507E+00,  5.20695805E-02, -9.51708982E-05,
                       8.33415946E-08, -2.76657068E-11, -4.79347216E+04,
                       7.47684428E+00]),
                NASA([861.36, 5000.00],
                     [ 4.89698094E+00,  9.93880207E-03, -5.31008283E-06,
                       1.02696444E-09, -6.98866969E-14, -4.87949682E+04,
                      -2.33641733E+01])))

species(name=u'CHX(26)',
        atoms='C:1 H:1 X:1',
        thermo=(NASA([100.00, 842.09],
                     [-5.56987338E-01,  1.43465897E-02, -2.40799805E-05,
                       2.33324965E-08, -8.66664896E-12,  1.34414590E+04,
                       1.22960421E+00]),
                NASA([842.09, 5000.00],
                     [-3.09959873E-02,  7.32533386E-03, -3.51682087E-06,
                       6.74978428E-10, -4.65514551E-14,  1.35132298E+04,
                      -2.65459124E-01])))

species(name=u'CXHO(27)',
        atoms='C:1 H:1 O:1 X:1',
        thermo=(NASA([100.00, 869.85],
                     [-1.39170973E+00,  3.56279483E-02, -6.82845216E-05,
                       6.39127833E-08, -2.23462961E-11, -1.76616822E+04,
                       4.71948457E+00]),
                NASA([869.85, 5000.00],
                     [ 1.74406535E+00,  1.01509129E-02, -5.28351585E-06,
                       1.01411542E-09, -6.87622825E-14, -1.77888999E+04,
                      -7.56706363E+00])))

species(name=u'CH4X(33)',
        atoms='C:1 H:4 X:1',
        thermo=(NASA([100.00, 1084.12],
                     [ 4.20541524E+00, -5.35557362E-03,  2.51123265E-05,
                      -2.13762843E-08,  5.97523937E-12, -1.11683812E+04,
                      -8.46956377E+00]),
                NASA([1084.12, 5000.00],
                     [ 9.08265721E-01,  1.14540858E-02, -4.57173828E-06,
                       8.29191671E-10, -5.66314895E-14, -1.07264124E+04,
                       6.44480995E+00])))

species(name=u'CO2X(34)',
        atoms='C:1 O:2 X:1',
        thermo=(NASA([100.00, 978.21],
                     [ 3.28084634E+00,  2.50183460E-03,  8.08199998E-06,
                      -1.20511416E-08,  4.66547255E-12, -4.94072683E+04,
                      -1.54747654E+00]),
                NASA([978.21, 5000.00],
                     [ 4.67426743E+00,  2.60964031E-03, -9.85689857E-07,
                       1.95713857E-10, -1.49836245E-14, -4.99576520E+04,
                      -9.65902065E+00])))

species(name=u'H2OX(35)',
        atoms='H:2 O:1 X:1',
        thermo=(NASA([100.00, 1130.24],
                     [ 4.05763610E+00, -7.87938871E-04,  2.90878480E-06,
                      -1.47520039E-09,  2.12847506E-13, -3.12880246E+04,
                      -7.85964951E+00]),
                NASA([1130.24, 5000.00],
                     [ 2.84324866E+00,  2.75108838E-03, -7.81033120E-07,
                       1.07244016E-10, -5.79395308E-15, -3.09650499E+04,
                      -1.63785437E+00])))

species(name=u'H2X(36)',
        atoms='H:2 X:1',
        thermo=(NASA([100.00, 1959.08],
                     [ 3.43536412E+00,  2.12710353E-04, -2.78625043E-07,
                       3.40267167E-10, -7.76031998E-14, -2.03779777E+03,
                      -1.14567018E+01]),
                NASA([1959.08, 5000.00],
                     [ 2.78816583E+00,  5.87640942E-04,  1.59010417E-07,
                      -5.52739026E-11,  4.34310984E-15, -1.60258220E+03,
                      -7.43555183E+00])))

species(name=u'COX(37)',
        atoms='C:1 O:1 X:1',
        thermo=(NASA([100.00, 1571.63],
                     [ 3.56838038E+00, -8.52129500E-04,  2.48918819E-06,
                      -1.56331996E-09,  3.13598127E-13, -1.52906929E+04,
                      -3.96916420E+00]),
                NASA([1571.63, 5000.00],
                     [ 2.91305202E+00,  1.64659937E-03, -6.88625686E-07,
                       1.21039677E-10, -7.84035796E-15, -1.51873148E+04,
                      -8.37741497E-01])))

species(name=u'C2H6X(39)',
        atoms='C:2 H:6 X:1',
        thermo=(NASA([100.00, 1012.42],
                     [ 3.72239291E+00,  1.65083841E-03,  3.44175530E-05,
                      -3.76858229E-08,  1.24450657E-11, -1.25640281E+04,
                      -2.86580449E+00]),
                NASA([1012.42, 5000.00],
                     [ 2.82848257E+00,  1.73040568E-02, -6.73334245E-06,
                       1.23742024E-09, -8.65676410E-14, -1.30042460E+04,
                      -1.61016742E+00])))

species(name=u'CH3OHX(46)',
        atoms='C:1 H:4 O:1 X:1',
        thermo=(NASA([100.00, 1035.75],
                     [ 3.84006214E+00,  1.38241998E-03,  1.91667191E-05,
                      -2.01568660E-08,  6.39102259E-12, -2.66147466E+04,
                      -1.63850312E+00]),
                NASA([1035.75, 5000.00],
                     [ 2.79184298E+00,  1.15827852E-02, -4.51551928E-06,
                       8.21206706E-10, -5.67063250E-14, -2.67276053E+04,
                       1.86233137E+00])))

species(name=u'C2H4OX(49)',
        atoms='C:2 H:4 O:1 X:1',
        thermo=(NASA([100.00, 1028.81],
                     [ 3.57991319E+00,  5.18996203E-03,  2.26893060E-05,
                      -2.73736957E-08,  9.28455869E-12, -2.23761748E+04,
                       1.42146983E+00]),
                NASA([1028.81, 5000.00],
                     [ 4.08568882E+00,  1.39060358E-02, -5.59365394E-06,
                       1.04608143E-09, -7.38729265E-14, -2.30455937E+04,
                      -3.78055108E+00])))

species(name=u'C2H4X(51)',
        atoms='C:2 H:4 X:1',
        thermo=(NASA([100.00, 979.36],
                     [ 3.97471606E+00, -4.75844285E-03,  4.16783770E-05,
                      -4.51392516E-08,  1.54224761E-11,  3.90896953E+03,
                      -3.92397605E+00]),
                NASA([979.36, 5000.00],
                     [ 3.55660610E+00,  1.10627464E-02, -4.17019079E-06,
                       7.85586770E-10, -5.70060829E-14,  3.31402696E+03,
                      -5.37108969E+00])))

species(name=u'CH2X(134)',
        atoms='C:1 H:2 X:1',
        thermo=(NASA([100.00, 1030.95],
                     [-7.17764069E-01,  1.61621491E-02, -1.60074829E-05,
                       9.00629613E-09, -2.09024566E-12,  8.92472400E+03,
                       2.06212783E+00]),
                NASA([1030.95, 5000.00],
                     [ 1.60135230E+00,  7.16444444E-03, -2.91650208E-06,
                       5.41234458E-10, -3.75747221E-14,  8.44653086E+03,
                      -9.19702687E+00])))

species(name=u'HO2X(135)',
        atoms='H:1 O:2 X:1',
        thermo=(NASA([100.00, 937.41],
                     [ 4.56407840E+00, -1.99941232E-02,  6.71226690E-05,
                      -7.01705560E-08,  2.46704576E-11, -5.06377081E+04,
                      -1.00343197E+01]),
                NASA([937.41, 5000.00],
                     [ 3.87667155E+00,  2.53550293E-03, -2.85179450E-07,
                       6.87598387E-11, -9.07470409E-15, -5.13698444E+04,
                      -1.13548970E+01])))

species(name=u'CH2OX(138)',
        atoms='C:1 H:2 O:1 X:1',
        thermo=(NASA([100.00, 883.09],
                     [-1.68799502E+00,  4.66594565E-02, -9.83298777E-05,
                       9.87463422E-08, -3.59508391E-11, -1.29444934E+04,
                       8.21589530E+00]),
                NASA([883.09, 5000.00],
                     [-2.32173142E-01,  1.70333800E-02, -8.88600205E-06,
                       1.68899604E-09, -1.13224710E-13, -1.23035526E+04,
                       6.45819051E+00])))

species(name=u'CHOX(153)',
        atoms='C:1 H:1 O:1 X:1',
        thermo=(NASA([100.00, 866.70],
                     [-1.36513036E+00,  3.47855554E-02, -6.58866974E-05,
                       6.14311742E-08, -2.14693854E-11, -1.28299816E+04,
                       4.54300538E+00]),
                NASA([866.70, 5000.00],
                     [ 1.74788261E+00,  1.00773041E-02, -5.22669280E-06,
                       1.00468635E-09, -6.82974153E-14, -1.29811993E+04,
                      -7.78948542E+00])))

species(name=u'SX(155)',
        atoms='C:1 H:3 O:2 X:1',
        thermo=(NASA([100.00, 901.63],
                     [ 3.37673823E+00,  5.57202362E-03,  3.10550935E-05,
                      -4.88018480E-08,  2.07659809E-11, -7.31017169E+04,
                      -3.56432143E+00]),
                NASA([901.63, 5000.00],
                     [ 8.93957509E+00,  2.27056031E-03,  9.83043647E-07,
                      -2.70278902E-10,  1.81173073E-14, -7.49737788E+04,
                      -3.46444396E+01])))

species(name=u'SX(159)',
        atoms='C:1 H:2 O:2 X:1',
        thermo=(NASA([100.00, 898.18],
                     [ 3.21625781E+00, -4.89929951E-03,  8.68493659E-05,
                      -1.30200921E-07,  5.58736015E-11, -3.67475504E+04,
                      -4.04483048E+00]),
                NASA([898.18, 5000.00],
                     [ 1.93773270E+01, -1.85073514E-02,  1.21047829E-05,
                      -2.37604806E-09,  1.57943863E-13, -4.20048851E+04,
                      -9.33826834E+01])))

species(name=u'SX(167)',
        atoms='C:1 H:3 O:3 X:1',
        thermo=(NASA([100.00, 1835.21],
                     [ 4.96079691E+00, -6.26017091E-04,  2.20662062E-05,
                      -1.58988116E-08,  3.12771925E-12, -9.58100024E+04,
                      -4.77793473E+00]),
                NASA([1835.21, 5000.00],
                     [ 4.89165188E+00,  1.96792562E-02, -1.10035311E-05,
                       2.09845369E-09, -1.39141081E-13, -9.91786306E+04,
                      -1.36493095E+01])))

#-------------------------------------------------------------------------------
# Reaction data
#-------------------------------------------------------------------------------

# Reaction 1
reaction('H2(6) + CO(7) <=> CH2O(9)', [2.890000e+09, 1.16, 82.1],