units(length='cm', time='s', quantity='mol', act_energy='kcal/mol')

ideal_gas(name='gas',
          elements="H D T C Ci O Oi N Ne Ar He Si S Cl X",
          species="""N2          Ar          He          Ne
                     CH4(2)      O2(3)       CO2(4)      H2O(5)
                     H2(6)       CO(7)       C2H6(8)     CH2O(9)
                     CH3(10)     C3H8(11)    H(12)       C2H5(13)
                     CH3OH(14)   HCO(15)     CH3CHO(16)  OH(17)
                     C2H4(18)    HOOH(49)    CH2OH(50)   OCO(54)
                     COCO(63)    OCOCO(65)   OC(O)O(73)  C2H6O4(77)
                     C2H6O3(86)  S(100)      CH4O4(106)  S(110)
                     S(112)      S(114)      S(126)      S(128)
                     S(130)      S(153)      S(157)      S(169)
                     S(253)      S(255)      S(257)""",
          transport='Mix',
          initial_state=state(temperature=300.0, pressure=OneAtm))

ideal_interface(name='surface1',
                elements="H D T C Ci O Oi N Ne Ar He Si S Cl X",
                species="""X(1)        HX(19)      OX(20)      CH3X(22)
                          HOX(23)     CHX(26)     CH4X(28)    H2OX(30)
                          H2X(31)     C2H6X(34)   CH3OX(39)   CH3OX(40)
                          CH3OHX(41)  CH2X(47)    HO2X(48)    CH3O2X(52)
                          CH3O2X(56)  CH4O2X(57)  SX(66)      CH3O3X(71)
                          HOOHX(88)   CH3O3X(93)  CH4O3X(94)  SX(97)
                          SX(104)     SX(116)     SX(117)     SX(118)
                          SX(121)     SX(133)     SX(134)     SX(135)
                          SX(136)     SX(137)     SX(164)     SX(186)
                          SX(202)     SX(203)     SX(248)     SX(269)
                          SX(270)     SX(271)     SX(273)     SX(274)
                          SX(290)     SX(292)     SX(295)     SX(297)
                          SX(298)     SX(299)     SX(300)     SX(302)
                          SX(324)     SX(325)     SX(326)     SX(355)
                          SX(426)     SX(429)     SX(430)     SX(522)
                          SX(523)     SX(559)     SX(615)     SX(617)
                          SX(649)     SX(699)""",
                site_density=2.9e-09,
                phases="gas",
          reactions='all',
                initial_state=state(temperature=300.0, pressure=OneAtm))

#-------------------------------------------------------------------------------
# Element data
#-------------------------------------------------------------------------------

element(symbol=u'Ci', atomic_mass=13.003)
element(symbol=u'D', atomic_mass=2.014)
element(symbol=u'Oi', atomic_mass=18.0)
element(symbol=u'T', atomic_mass=3.016)
element(symbol=u'X', atomic_mass=195.083)
#-------------------------------------------------------------------------------
# Species data
#-------------------------------------------------------------------------------

species(name=u'N2',
        atoms='N:2',
        thermo=(NASA([200.00, 1000.00],
                     [ 3.53101000E+00, -1.23661000E-04, -5.02999000E-07,
                       2.43531000E-09, -1.40881000E-12, -1.04698000E+03,
                       2.96747000E+00]),
                NASA([1000.00, 6000.00],
                     [ 2.95258000E+00,  1.39690000E-03, -4.92632000E-07,
                       7.86010000E-11, -4.60755000E-15, -9.23949000E+02,
                       5.87189000E+00])),
        transport=gas_transport(geom='linear',
                                diam=3.621,
                                well_depth=97.53,
                                polar=1.76,
                                rot_relax=4.0))

species(name=u'Ar',
        atoms='Ar:1',
        thermo=(NASA([200.00, 1000.00],
                     [ 2.50000000E+00,  0.00000000E+00,  0.00000000E+00,
                       0.00000000E+00,  0.00000000E+00, -7.45375000E+02,
                       4.37967000E+00]),
                NASA([1000.00, 6000.00],
                     [ 2.50000000E+00,  0.00000000E+00,  0.00000000E+00,
                       0.00000000E+00,  0.00000000E+00, -7.45375000E+02,
                       4.37967000E+00])),
        transport=gas_transport(geom='atom',
                                diam=3.33,
                                well_depth=136.501))

species(name=u'He',
        atoms='He:1',
        thermo=(NASA([200.00, 1000.00],
                     [ 2.50000000E+00,  0.00000000E+00,  0.00000000E+00,
                       0.00000000E+00,  0.00000000E+00, -7.45375000E+02,
                       9.28724000E-01]),
                NASA([1000.00, 6000.00],
                     [ 2.50000000E+00,  0.00000000E+00,  0.00000000E+00,
                       0.00000000E+00,  0.00000000E+00, -7.45375000E+02,
                       9.28724000E-01])),
        transport=gas_transport(geom='atom',
                                diam=2.576,
                                well_depth=10.2))

species(name=u'Ne',
        atoms='Ne:1',
        thermo=(NASA([200.00, 1000.00],
                     [ 2.50000000E+00,  0.00000000E+00,  0.00000000E+00,
                       0.00000000E+00,  0.00000000E+00, -7.45375000E+02,
                       3.35532000E+00]),
                NASA([1000.00, 6000.00],
                     [ 2.50000000E+00,  0.00000000E+00,  0.00000000E+00,
                       0.00000000E+00,  0.00000000E+00, -7.45375000E+02,
                       3.35532000E+00])),
        transport=gas_transport(geom='atom',
                                diam=3.758,
                                well_depth=148.6))

species(name=u'CH4(2)',
        atoms='C:1 H:4',
        thermo=(NASA([100.00, 1084.12],
                     [ 4.20541524E+00, -5.35557362E-03,  2.51123265E-05,
                      -2.13762843E-08,  5.97523937E-12, -1.01619433E+04,
                      -9.21279283E-01]),
                NASA([1084.12, 5000.00],
                     [ 9.08265721E-01,  1.14540858E-02, -4.57173828E-06,
                       8.29191671E-10, -5.66314895E-14, -9.71997444E+03,
                       1.39930944E+01])),
        transport=gas_transport(geom='nonlinear',
                                diam=3.746,
                                well_depth=141.4,
                                polar=2.6,
                                rot_relax=13.0))

species(name=u'O2(3)',
        atoms='O:2',
        thermo=(NASA([100.00, 1074.56],
                     [ 3.53732181E+00, -1.21570930E-03,  5.31617826E-06,
                      -4.89443424E-09,  1.45845042E-12, -1.03858846E+03,
                       4.68368406E+00]),
                NASA([1074.56, 5000.00],
                     [ 3.15382425E+00,  1.67803802E-03, -7.69971022E-07,
                       1.51274714E-10, -1.08781801E-14, -1.04081878E+03,
                       6.16753884E+00])),
        transport=gas_transport(geom='linear',
                                diam=3.467,
                                well_depth=106.7))

species(name=u'CO2(4)',
        atoms='C:1 O:2',
        thermo=(NASA([100.00, 978.21],
                     [ 3.28084634E+00,  2.50183460E-03,  8.08199998E-06,
                      -1.20511416E-08,  4.66547255E-12, -4.84008304E+04,
                       6.00080795E+00]),
                NASA([978.21, 5000.00],
                     [ 4.67426743E+00,  2.60964031E-03, -9.85689857E-07,
                       1.95713857E-10, -1.49836245E-14, -4.89512140E+04,
                      -2.11073617E+00])),
        transport=gas_transport(geom='linear',
                                diam=3.941,
                                well_depth=195.201))

species(name=u'H2O(5)',
        atoms='H:2 O:1',
        thermo=(NASA([100.00, 1130.24],
                     [ 4.05763610E+00, -7.87938871E-04,  2.90878480E-06,
                      -1.47520039E-09,  2.12847506E-13, -3.02815866E+04,
                      -3.11365027E-01]),
                NASA([1130.24, 5000.00],
                     [ 2.84324866E+00,  2.75108838E-03, -7.81033120E-07,
                       1.07244016E-10, -5.79395308E-15, -2.99586120E+04,
                       5.91043011E+00])),
        transport=gas_transport(geom='nonlinear',
                                diam=2.641,
                                well_depth=809.102,
                                polar=1.76,
                                rot_relax=4.0))

species(name=u'H2(6)',
        atoms='H:2',
        thermo=(NASA([100.00, 1959.08],
                     [ 3.43536412E+00,  2.12710353E-04, -2.78625043E-07,
                       3.40267167E-10, -7.76031998E-14, -1.03135984E+03,
                      -3.90841732E+00]),
                NASA([1959.08, 5000.00],
                     [ 2.78816583E+00,  5.87640942E-04,  1.59010417E-07,
                      -5.52739026E-11,  4.34310984E-15, -5.96144270E+02,
                       1.12732655E-01])),
        transport=gas_transport(geom='linear',
                                diam=2.833,
                                well_depth=59.7))

species(name=u'CO(7)',
        atoms='C:1 O:1',
        thermo=(NASA([100.00, 1571.63],
                     [ 3.56838038E+00, -8.52129500E-04,  2.48918819E-06,
                      -1.56331996E-09,  3.13598127E-13, -1.42842550E+04,
                       3.57912028E+00]),
                NASA([1571.63, 5000.00],
                     [ 2.91305202E+00,  1.64659937E-03, -6.88625686E-07,
                       1.21039677E-10, -7.84035796E-15, -1.41808768E+04,
                       6.71054299E+00])),
        transport=gas_transport(geom='linear',
                                diam=3.69,
                                well_depth=91.7,
                                polar=1.76,
                                rot_relax=4.0))

species(name=u'C2H6(8)',
        atoms='C:2 H:6',
        thermo=(NASA([100.00, 1012.42],
                     [ 3.72239291E+00,  1.65083841E-03,  3.44175530E-05,
                      -3.76858229E-08,  1.24450657E-11, -1.15575901E+04,
                       4.68247999E+00]),
                NASA([1012.42, 5000.00],
                     [ 2.82848257E+00,  1.73040568E-02, -6.73334245E-06,
                       1.23742024E-09, -8.65676410E-14, -1.19978080E+04,
                       5.93811707E+00])),
        transport=gas_transport(geom='nonlinear',
                                diam=4.302,
                                well_depth=252.301,
                                rot_relax=1.5))

species(name=u'CH2O(9)',
        atoms='C:1 H:2 O:1',
        thermo=(NASA([100.00, 1070.44],
                     [ 4.12927802E+00, -4.08401318E-03,  2.03229341E-05,
                      -1.83524244E-08,  5.37975522E-12, -1.44294640E+04,
                       3.22418463E+00]),
                NASA([1070.44, 5000.00],
                     [ 2.21172442E+00,  7.94265679E-03, -3.34193053E-06,
                       6.28471401E-10, -4.40431446E-14, -1.42974456E+04,
                       1.13048985E+01])),
        transport=gas_transport(geom='nonlinear',
                                diam=3.59,
                                well_depth=498.002,
                                rot_relax=2.0))

species(name=u'CH3(10)',
        atoms='C:1 H:3',
        thermo=(NASA([100.00, 697.71],
                     [ 3.96043098E+00,  5.92939934E-04,  8.78575390E-06,
                      -9.88030557E-09,  3.63234580E-12,  1.64218818E+04,
                       3.39865631E-01]),
                NASA([697.71, 5000.00],
                     [ 3.09511187E+00,  5.55429874E-03, -1.88158855E-06,
                       3.13335012E-10, -2.05195181E-14,  1.65426192E+04,
                       4.20297876E+00])),
        transport=gas_transport(geom='nonlinear',
                                diam=3.8,
                                well_depth=144.001))

species(name=u'C3H8(11)',
        atoms='C:3 H:8',
        thermo=(NASA([100.00, 989.99],
                     [ 3.06336167E+00,  1.29214561E-02,  3.47032808E-05,
                      -4.70946154E-08,  1.71384141E-11, -1.43905789E+04,
                       1.07835592E+01]),
                NASA([989.99, 5000.00],
                     [ 5.60440043E+00,  2.19528785E-02, -8.22080610E-06,
                       1.50103993E-09, -1.05635358E-13, -1.58394038E+04,
                      -6.22623300E+00])),
        transport=gas_transport(geom='nonlinear',
                                diam=4.982,
                                well_depth=266.801,
                                rot_relax=1.0))

species(name=u'H(12)',
        atoms='H:1',
        thermo=(NASA([100.00, 3459.60],
                     [ 2.50000000E+00,  9.24384602E-15, -1.36779837E-17,
                       6.66184769E-21, -1.00106912E-24,  2.54742178E+04,
                      -4.44972896E-01]),
                NASA([3459.60, 5000.00],
                     [ 2.49999999E+00,  9.20455546E-12, -3.58608293E-15,
                       6.15198922E-19, -3.92041801E-23,  2.54742178E+04,
                      -4.44972842E-01])),
        transport=gas_transport(geom='atom',
                                diam=2.05,
                                well_depth=145.0))

species(name=u'C2H5(13)',
        atoms='C:2 H:5',
        thermo=(NASA([100.00, 1006.87],
                     [ 3.68746539E+00,  3.06889693E-03,  2.55873112E-05,
                      -2.94076576E-08,  9.94076215E-12,  1.31153648E+04,
                       6.96684864E+00]),
                NASA([1006.87, 5000.00],
                     [ 3.53781010E+00,  1.37311636E-02, -5.29564638E-06,
                       9.71482858E-10, -6.80289490E-14,  1.26351790E+04,
                       5.15566048E+00])),
        transport=gas_transport(geom='nonlinear',
                                diam=4.302,
                                well_depth=252.301,
                                rot_relax=1.5))

species(name=u'CH3OH(14)',
        atoms='C:1 H:4 O:1',
        thermo=(NASA([100.00, 1035.75],
                     [ 3.84006214E+00,  1.38241998E-03,  1.91667191E-05,
                      -2.01568660E-08,  6.39102259E-12, -2.56083087E+04,
                       5.90978137E+00]),
                NASA([1035.75, 5000.00],
                     [ 2.79184298E+00,  1.15827852E-02, -4.51551928E-06,
                       8.21206706E-10, -5.67063250E-14, -2.57211674E+04,
                       9.41061586E+00])),
        transport=gas_transport(geom='nonlinear',
                                diam=3.626,
                                well_depth=481.802,
                                rot_relax=1.0))

species(name=u'HCO(15)',
        atoms='C:1 H:1 O:1',
        thermo=(NASA([100.00, 1112.10],
                     [ 4.05936407E+00, -1.73846452E-03,  9.14981041E-06,
                      -8.01131526E-09,  2.25737264E-12,  3.84377617E+03,
                       3.32449702E+00]),
                NASA([1112.10, 5000.00],
                     [ 3.05136186E+00,  4.11706437E-03, -1.75586433E-06,
                       3.29302821E-10, -2.29174030E-14,  3.93007923E+03,
                       7.67464289E+00])),
        transport=gas_transport(geom='nonlinear',
                                diam=3.59,
                                well_depth=498.002))

species(name=u'CH3CHO(16)',
        atoms='C:2 H:4 O:1',
        thermo=(NASA([100.00, 1028.81],
                     [ 3.57991319E+00,  5.18996203E-03,  2.26893060E-05,
                      -2.73736957E-08,  9.28455869E-12, -2.13697369E+04,
                       8.96975431E+00]),
                NASA([1028.81, 5000.00],
                     [ 4.08568882E+00,  1.39060358E-02, -5.59365394E-06,
                       1.04608143E-09, -7.38729265E-14, -2.20391558E+04,
                       3.76773341E+00])),
        transport=gas_transport(geom='nonlinear',
                                diam=3.97,
                                well_depth=436.001,
                                rot_relax=2.0))

species(name=u'OH(17)',
        atoms='H:1 O:1',
        thermo=(NASA([100.00, 1145.75],
                     [ 3.51456768E+00,  2.92814373E-05, -5.32176582E-07,
                       1.01950588E-09, -3.85951152E-13,  3.41425421E+03,
                       2.10435015E+00]),
                NASA([1145.75, 5000.00],
                     [ 3.07194246E+00,  6.04011411E-04, -1.39759127E-08,
                      -2.13451563E-11,  2.48070095E-15,  3.57938557E+03,
                       4.57798500E+00])),
        transport=gas_transport(geom='linear',
                                diam=2.75,
                                well_depth=80.0))

species(name=u'C2H4(18)',
        atoms='C:2 H:4',
        thermo=(NASA([100.00, 979.36],
                     [ 3.97471606E+00, -4.75844285E-03,  4.16783770E-05,
                      -4.51392516E-08,  1.54224761E-11,  4.91540746E+03,
                       3.62430844E+00]),
                NASA([979.36, 5000.00],
                     [ 3.55660610E+00,  1.10627464E-02, -4.17019079E-06,
                       7.85586770E-10, -5.70060829E-14,  4.32046489E+03,
                       2.17719479E+00])),
        transport=gas_transport(geom='nonlinear',
                                diam=3.971,
                                well_depth=280.801,
                                rot_relax=1.5))

species(name=u'HOOH(49)',
        atoms='H:2 O:2',
        thermo=(NASA([100.00, 1005.78],
                     [ 3.81666060E+00,  2.71177103E-03,  6.17757060E-06,
                      -8.24839330E-09,  2.92664300E-12, -1.76922539E+04,
                       5.38575095E+00]),
                NASA([1005.78, 5000.00],
                     [ 4.14711917E+00,  4.72694898E-03, -1.79320499E-06,
                       3.26120398E-10, -2.27309864E-14, -1.79271299E+04,
                       2.95240617E+00])),
        transport=gas_transport(geom='nonlinear',
                                diam=4.196,
                                well_depth=289.3))

species(name=u'CH2OH(50)',
        atoms='C:1 H:3 O:1',
        thermo=(NASA([100.00, 1015.48],
                     [ 3.61905444E+00,  6.28695698E-03,  5.57453382E-06,
                      -9.77872604E-09,  3.69458574E-12, -3.32162396E+03,
                       6.61713040E+00]),
                NASA([1015.48, 5000.00],
                     [ 4.77201169E+00,  6.78473588E-03, -2.60442931E-06,
                       4.77565512E-10, -3.34609211E-14, -3.81561325E+03,
                      -2.42265753E-01])),
        transport=gas_transport(geom='nonlinear',
                                diam=3.69,
                                well_depth=417.002,
                                dipole=1.7,
                                rot_relax=2.0))

species(name=u'OCO(54)',
        atoms='C:1 H:4 O:2',
        thermo=(NASA([100.00, 894.11],
                     [ 2.88372686E+00,  7.57639546E-03,  5.50733244E-05,
                      -9.34426386E-08,  4.16292241E-11, -4.93732271E+04,
                       1.12137611E+01]),
                NASA([894.11, 5000.00],
                     [ 1.68608749E+01, -9.64376863E-03,  7.94900025E-06,
                      -1.62844270E-09,  1.09854710E-13, -5.36837522E+04,
                      -6.47814539E+01])),
        transport=gas_transport(geom='nonlinear',
                                diam=5.898,
                                well_depth=436.691))

species(name=u'COCO(63)',
        atoms='C:2 H:6 O:2',
        thermo=(NASA([100.00, 916.52],
                     [ 2.31181672E+00,  2.23361405E-02,  3.35235210E-05,
                      -6.96413846E-08,  3.14475625E-11, -4.68597530E+04,
                       1.52952903E+01]),
                NASA([916.52, 5000.00],
                     [ 1.54932500E+01,  3.38503645E-03,  1.40325282E-06,
                      -3.52997664E-10,  2.08718044E-14, -5.08962198E+04,
                      -5.59876363E+01])),
        transport=gas_transport(geom='nonlinear',
                                diam=5.709,
                                well_depth=402.716))

species(name=u'OCOCO(65)',
        atoms='C:2 H:6 O:3',
        thermo=(NASA([100.00, 899.97],
                     [ 1.29825447E+00,  3.07098085E-02,  6.20403688E-05,
                      -1.33819098E-07,  6.29679824E-11, -6.98970253E+04,
                       2.01527167E+01]),
                NASA([899.97, 5000.00],
                     [ 2.92352801E+01, -1.66453823E-02,  1.29404293E-05,
                      -2.60810307E-09,  1.73868887E-13, -7.80362349E+04,
                      -1.28965280E+02])),
        transport=gas_transport(geom='nonlinear',
                                diam=6.41,
                                well_depth=471.357))

species(name=u'OC(O)O(73)',
        atoms='C:1 H:4 O:3',
        thermo=(NASA([100.00, 844.27],
                     [ 2.69687443E+00,  3.43592570E-02, -5.88062345E-05,
                       5.90160504E-08, -2.25209525E-11, -7.22065646E+04,
                       1.45765971E+01]),
                NASA([844.27, 5000.00],
                     [ 2.93921878E+00,  2.00243065E-02, -9.90874893E-06,
                       1.90443525E-09, -1.31173785E-13, -7.17775170E+04,
                       1.62317410E+01])),
        transport=gas_transport(geom='nonlinear',
                                diam=6.621,
                                well_depth=506.876))

species(name=u'C2H6O4(77)',
        atoms='C:2 H:6 O:4',
        thermo=(NASA([100.00, 1019.91],
                     [ 1.02067282E+00,  5.85393297E-02, -5.53132302E-05,
                       2.27008696E-08, -2.63048524E-12, -9.27264803E+04,
                       2.49404376E+01]),
                NASA([1019.91, 5000.00],
                     [ 1.59123956E+01,  1.20045466E-02, -4.33007530E-06,
                       7.86029752E-10, -5.56495138E-14, -9.63814542E+04,
                      -5.02234964E+01])),
        transport=gas_transport(geom='nonlinear',
                                diam=7.133,
                                well_depth=541.399))

species(name=u'C2H6O3(86)',
        atoms='C:2 H:6 O:3',
        thermo=(NASA([100.00, 2901.10],
                     [ 4.18967691E+00,  2.71660789E-02, -1.18812568E-05,
                       1.68621400E-09, -4.46399336E-14, -6.97930474E+04,
                       1.14535714E+01]),
                NASA([2901.10, 5000.00],
                     [ 4.12056281E+01, -1.30997240E-02,  3.36872729E-06,
                      -5.38397020E-10,  3.67781909E-14, -9.58032228E+04,
                      -2.14364487E+02])),
        transport=gas_transport(geom='nonlinear',
                                diam=6.44,
                                well_depth=473.551))

species(name=u'S(100)',
        atoms='C:2 H:6 O:5',
        thermo=(NASA([100.00, 849.73],
                     [ 9.23344610E-01,  8.42978039E-02, -1.65843069E-04,
                       1.71346321E-07, -6.54874528E-11, -1.15563650E+05,
                       2.76931846E+01]),
                NASA([849.73, 5000.00],
                     [ 1.37205370E+00,  4.27241465E-02, -2.27941119E-05,
                       4.46211467E-09, -3.08555870E-13, -1.14215277E+05,
                       3.39843486E+01])),
        transport=gas_transport(geom='nonlinear',
                                diam=7.86,
                                well_depth=613.165))

species(name=u'CH4O4(106)',
        atoms='C:1 H:4 O:4',
        thermo=(NASA([100.00, 924.72],
                     [ 1.92958868E+00,  5.10647814E-02, -8.66425210E-05,
                       7.54595263E-08, -2.46384884E-11, -9.32652147E+04,
                       1.69303666E+01]),
                NASA([924.72, 5000.00],
                     [ 6.84926194E+00,  1.56744854E-02, -6.34812439E-06,
                       1.07178333E-09, -6.66908644E-14, -9.35718182E+04,
                      -3.15732319E+00])),
        transport=gas_transport(geom='nonlinear',
                                diam=7.348,
                                well_depth=576.993))

species(name=u'S(110)',
        atoms='C:2 H:6 O:5',
        thermo=(NASA([100.00, 1250.27],
                     [ 1.64475615E-02,  7.81475127E-02, -9.39015479E-05,
                       5.41655018E-08, -1.17394357E-11, -1.13774889E+05,
                       2.84254544E+01]),
                NASA([1250.27, 5000.00],
                     [ 1.98745916E+01,  7.53390947E-03, -6.87829127E-07,
                      -6.78096512E-11,  1.07025230E-14, -1.18187035E+05,
                      -6.96007453E+01])),
        transport=gas_transport(geom='nonlinear',
                                diam=7.865,
                                well_depth=612.445))

species(name=u'S(112)',
        atoms='C:2 H:6 O:4',
        thermo=(NASA([100.00, 880.37],
                     [ 1.39304742E+00,  6.53828474E-02, -1.06531177E-04,
                       9.69373842E-08, -3.37526407E-11, -9.07532434E+04,
                       2.15797957E+01]),
                NASA([880.37, 5000.00],
                     [ 5.37550176E+00,  2.88893356E-02, -1.30035032E-05,
                       2.37353456E-09, -1.57881410E-13, -9.07414423E+04,
                       6.92365799E+00])),
        transport=gas_transport(geom='nonlinear',
                                diam=7.168,
                                well_depth=543.005))

species(name=u'S(114)',
        atoms='C:2 H:6 O:6',
        thermo=(NASA([100.00, 877.11],
                     [ 1.71954779E-01,  1.00781858E-01, -1.92713843E-04,
                       1.86188389E-07, -6.67260150E-11, -1.36622976E+05,
                       3.09727437E+01]),
                NASA([877.11, 5000.00],
                     [ 5.32073397E+00,  3.83108607E-02, -1.91978158E-05,
                       3.62119733E-09, -2.43397448E-13, -1.36026395E+05,
                       1.53576417E+01])),
        transport=gas_transport(geom='nonlinear',
                                diam=8.605,
                                well_depth=687.823))

species(name=u'S(126)',
        atoms='C:3 H:8 O:5',
        thermo=(NASA([100.00, 934.96],
                     [-5.23506180E-01,  8.12044058E-02, -4.68263819E-05,
                      -1.94115695E-08,  1.93156317E-11, -1.13252058E+05,
                       3.37303390E+01]),
                NASA([934.96, 5000.00],
                     [ 2.79874900E+01,  5.50538838E-03,  3.74250979E-07,
                      -1.26267869E-10,  2.80573963E-15, -1.20606092E+05,
                      -1.12718416E+02])),
        transport=gas_transport(geom='nonlinear',
                                diam=7.647,
                                well_depth=576.372))

species(name=u'S(128)',
        atoms='C:3 H:8 O:4',
        thermo=(NASA([100.00, 1225.35],
                     [ 6.80920821E-01,  7.04982412E-02, -6.66585727E-05,
                       3.24429104E-08, -6.34601859E-12, -9.02231632E+04,
                       2.81921609E+01]),
                NASA([1225.35, 5000.00],
                     [ 1.46649468E+01,  2.48485437E-02, -1.07761979E-05,
                       2.03901111E-09, -1.42829997E-13, -9.36501823E+04,
                      -4.21144175E+01])),
        transport=gas_transport(geom='nonlinear',
                                diam=6.95,
                                well_depth=507.759))

species(name=u'S(130)',
        atoms='C:3 H:8 O:6',
        thermo=(NASA([100.00, 799.18],
                     [-3.35420141E-01,  1.03219748E-01, -1.42364424E-04,
                       1.06801160E-07, -3.25092243E-11, -1.36101282E+05,
                       3.68692694E+01]),
                NASA([799.18, 5000.00],
                     [ 1.28187495E+01,  3.73826234E-02, -1.87954208E-05,
                       3.72322405E-09, -2.64909698E-13, -1.38203831E+05,
                      -2.36434783E+01])),
        transport=gas_transport(geom='nonlinear',
                                diam=8.383,
                                well_depth=649.967))

species(name=u'S(153)',
        atoms='C:3 H:8 O:4',
        thermo=(NASA([100.00, 902.46],
                     [-2.87693495E-01,  5.38482412E-02,  6.89937020E-05,
                      -1.74185846E-07,  8.43075141E-11, -9.04208032E+04,
                       2.90934074E+01]),
                NASA([902.46, 5000.00],
                     [ 4.16145467E+01, -2.36552988E-02,  1.79366620E-05,
                      -3.58890090E-09,  2.37977582E-13, -1.02390745E+05,
                      -1.93176436E+02])),
        transport=gas_transport(geom='nonlinear',
                                diam=6.921,
                                well_depth=505.782))

species(name=u'S(157)',
        atoms='C:3 H:8 O:5',
        thermo=(NASA([100.00, 934.96],
                     [-5.23506180E-01,  8.12044058E-02, -4.68263819E-05,
                      -1.94115695E-08,  1.93156317E-11, -1.13252058E+05,
                       3.37303390E+01]),
                NASA([934.96, 5000.00],
                     [ 2.79874900E+01,  5.50538838E-03,  3.74250979E-07,
                      -1.26267869E-10,  2.80573963E-15, -1.20606092E+05,
                      -1.12718416E+02])),
        transport=gas_transport(geom='nonlinear',
                                diam=7.647,
                                well_depth=576.372))

species(name=u'S(169)',
        atoms='C:2 H:6 O:7',
        thermo=(NASA([100.00, 906.02],
                     [-5.88237787E-01,  1.17405323E-01, -2.20281220E-04,
                       2.02335902E-07, -6.87560073E-11, -1.57681926E+05,
                       3.28955893E+01]),
                NASA([906.02, 5000.00],
                     [ 9.18591378E+00,  3.40393091E-02, -1.56831666E-05,
                       2.79955275E-09, -1.79836785E-13, -1.57802512E+05,
                      -4.18572098E+00])),
        transport=gas_transport(geom='nonlinear',
                                diam=9.37,
                                well_depth=767.769))

species(name=u'S(253)',
        atoms='C:3 H:8 O:6',
        thermo=(NASA([100.00, 1539.23],
                     [-2.59392491E+00,  1.13177380E-01, -1.27796568E-04,