units(length='cm', time='s', quantity='mol', act_energy='kcal/mol')

ideal_gas(name='gas',
          elements="H D T C Ci O Oi N Ne Ar He Si S Cl X",
          species="""N2          Ar          He          Ne
                     CH4(2)      O2(3)       CO2(4)      H2O(5)
                     H2(6)       CO(7)       C2H6(8)     CH2O(9)
                     CH3(10)     C3H8(11)    H(12)       C2H5(13)
                     CH3OH(14)   HCO(15)     CH3CHO(16)  OH(17)
                     C2H4(18)""",
          reactions='gas-*',
          transport='Mix',
          initial_state=state(temperature=300.0, pressure=OneAtm))

ideal_interface(name='surface1',
                elements="H D T C Ci O Oi N Ne Ar He Si S Cl X",
                species="""X(1)       HX(19)     OX(20)     CH3X(21)
                          HOX(22)    H2OX(23)   CO2X(24)   OCX(25)
                          CX(26)     CH2X(27)   CHX(28)    CH4X(45)
                          COX(47)    CHOX(50)   CH4OX(57)""",
                site_density=2.9e-09,
                phases="gas",
          reactions='surface1-*',
                initial_state=state(temperature=300.0, pressure=OneAtm))

#-------------------------------------------------------------------------------
# Element data
#-------------------------------------------------------------------------------

element(symbol=u'Ci', atomic_mass=13.003)
element(symbol=u'D', atomic_mass=2.014)
element(symbol=u'Oi', atomic_mass=18.0)
element(symbol=u'T', atomic_mass=3.016)
element(symbol=u'X', atomic_mass=195.083)
#-------------------------------------------------------------------------------
# Species data
#-------------------------------------------------------------------------------

species(name=u'N2',
        atoms='N:2',
        thermo=(NASA([200.00, 1000.00],
                     [ 3.53101000E+00, -1.23661000E-04, -5.02999000E-07,
                       2.43531000E-09, -1.40881000E-12, -1.04698000E+03,
                       2.96747000E+00]),
                NASA([1000.00, 6000.00],
                     [ 2.95258000E+00,  1.39690000E-03, -4.92632000E-07,
                       7.86010000E-11, -4.60755000E-15, -9.23949000E+02,
                       5.87189000E+00])),
        transport=gas_transport(geom='linear',
                                diam=3.621,
                                well_depth=97.53,
                                polar=1.76,
                                rot_relax=4.0))

species(name=u'Ar',
        atoms='Ar:1',
        thermo=(NASA([200.00, 1000.00],
                     [ 2.50000000E+00,  0.00000000E+00,  0.00000000E+00,
                       0.00000000E+00,  0.00000000E+00, -7.45375000E+02,
                       4.37967000E+00]),
                NASA([1000.00, 6000.00],
                     [ 2.50000000E+00,  0.00000000E+00,  0.00000000E+00,
                       0.00000000E+00,  0.00000000E+00, -7.45375000E+02,
                       4.37967000E+00])),
        transport=gas_transport(geom='atom',
                                diam=3.33,
                                well_depth=136.501))

species(name=u'He',
        atoms='He:1',
        thermo=(NASA([200.00, 1000.00],
                     [ 2.50000000E+00,  0.00000000E+00,  0.00000000E+00,
                       0.00000000E+00,  0.00000000E+00, -7.45375000E+02,
                       9.28724000E-01]),
                NASA([1000.00, 6000.00],
                     [ 2.50000000E+00,  0.00000000E+00,  0.00000000E+00,
                       0.00000000E+00,  0.00000000E+00, -7.45375000E+02,
                       9.28724000E-01])),
        transport=gas_transport(geom='atom',
                                diam=2.576,
                                well_depth=10.2))

species(name=u'Ne',
        atoms='Ne:1',
        thermo=(NASA([200.00, 1000.00],
                     [ 2.50000000E+00,  0.00000000E+00,  0.00000000E+00,
                       0.00000000E+00,  0.00000000E+00, -7.45375000E+02,
                       3.35532000E+00]),
                NASA([1000.00, 6000.00],
                     [ 2.50000000E+00,  0.00000000E+00,  0.00000000E+00,
                       0.00000000E+00,  0.00000000E+00, -7.45375000E+02,
                       3.35532000E+00])),
        transport=gas_transport(geom='atom',
                                diam=3.758,
                                well_depth=148.6))

species(name=u'CH4(2)',
        atoms='C:1 H:4',
        thermo=(NASA([100.00, 1084.12],
                     [ 4.20541524E+00, -5.35557362E-03,  2.51123265E-05,
                      -2.13762843E-08,  5.97523937E-12, -1.01619433E+04,
                      -9.21279283E-01]),
                NASA([1084.12, 5000.00],
                     [ 9.08265721E-01,  1.14540858E-02, -4.57173828E-06,
                       8.29191671E-10, -5.66314895E-14, -9.71997444E+03,
                       1.39930944E+01])),
        transport=gas_transport(geom='nonlinear',
                                diam=3.746,
                                well_depth=141.4,
                                polar=2.6,
                                rot_relax=13.0))

species(name=u'O2(3)',
        atoms='O:2',
        thermo=(NASA([100.00, 1074.56],
                     [ 3.53732181E+00, -1.21570930E-03,  5.31617826E-06,
                      -4.89443424E-09,  1.45845042E-12, -1.03858846E+03,
                       4.68368406E+00]),
                NASA([1074.56, 5000.00],
                     [ 3.15382425E+00,  1.67803802E-03, -7.69971022E-07,
                       1.51274714E-10, -1.08781801E-14, -1.04081878E+03,
                       6.16753884E+00])),
        transport=gas_transport(geom='linear',
                                diam=3.467,
                                well_depth=106.7))

species(name=u'CO2(4)',
        atoms='C:1 O:2',
        thermo=(NASA([100.00, 978.21],
                     [ 3.28084634E+00,  2.50183460E-03,  8.08199998E-06,
                      -1.20511416E-08,  4.66547255E-12, -4.84008304E+04,
                       6.00080795E+00]),
                NASA([978.21, 5000.00],
                     [ 4.67426743E+00,  2.60964031E-03, -9.85689857E-07,
                       1.95713857E-10, -1.49836245E-14, -4.89512140E+04,
                      -2.11073617E+00])),
        transport=gas_transport(geom='linear',
                                diam=3.941,
                                well_depth=195.201))

species(name=u'H2O(5)',
        atoms='H:2 O:1',
        thermo=(NASA([100.00, 1130.24],
                     [ 4.05763610E+00, -7.87938871E-04,  2.90878480E-06,
                      -1.47520039E-09,  2.12847506E-13, -3.02815866E+04,
                      -3.11365027E-01]),
                NASA([1130.24, 5000.00],
                     [ 2.84324866E+00,  2.75108838E-03, -7.81033120E-07,
                       1.07244016E-10, -5.79395308E-15, -2.99586120E+04,
                       5.91043011E+00])),
        transport=gas_transport(geom='nonlinear',
                                diam=2.641,
                                well_depth=809.102,
                                polar=1.76,
                                rot_relax=4.0))

species(name=u'H2(6)',
        atoms='H:2',
        thermo=(NASA([100.00, 1959.08],
                     [ 3.43536412E+00,  2.12710353E-04, -2.78625043E-07,
                       3.40267167E-10, -7.76031998E-14, -1.03135984E+03,
                      -3.90841732E+00]),
                NASA([1959.08, 5000.00],
                     [ 2.78816583E+00,  5.87640942E-04,  1.59010417E-07,
                      -5.52739026E-11,  4.34310984E-15, -5.96144270E+02,
                       1.12732655E-01])),
        transport=gas_transport(geom='linear',
                                diam=2.833,
                                well_depth=59.7))

species(name=u'CO(7)',
        atoms='C:1 O:1',
        thermo=(NASA([100.00, 1571.63],
                     [ 3.56838038E+00, -8.52129500E-04,  2.48918819E-06,
                      -1.56331996E-09,  3.13598127E-13, -1.42842550E+04,
                       3.57912028E+00]),
                NASA([1571.63, 5000.00],
                     [ 2.91305202E+00,  1.64659937E-03, -6.88625686E-07,
                       1.21039677E-10, -7.84035796E-15, -1.41808768E+04,
                       6.71054299E+00])),
        transport=gas_transport(geom='linear',
                                diam=3.69,
                                well_depth=91.7,
                                polar=1.76,
                                rot_relax=4.0))

species(name=u'C2H6(8)',
        atoms='C:2 H:6',
        thermo=(NASA([100.00, 1012.42],
                     [ 3.72239291E+00,  1.65083841E-03,  3.44175530E-05,
                      -3.76858229E-08,  1.24450657E-11, -1.15575901E+04,
                       4.68247999E+00]),
                NASA([1012.42, 5000.00],
                     [ 2.82848257E+00,  1.73040568E-02, -6.73334245E-06,
                       1.23742024E-09, -8.65676410E-14, -1.19978080E+04,
                       5.93811707E+00])),
        transport=gas_transport(geom='nonlinear',
                                diam=4.302,
                                well_depth=252.301,
                                rot_relax=1.5))

species(name=u'CH2O(9)',
        atoms='C:1 H:2 O:1',
        thermo=(NASA([100.00, 1070.44],
                     [ 4.12927802E+00, -4.08401318E-03,  2.03229341E-05,
                      -1.83524244E-08,  5.37975522E-12, -1.44294640E+04,
                       3.22418463E+00]),
                NASA([1070.44, 5000.00],
                     [ 2.21172442E+00,  7.94265679E-03, -3.34193053E-06,
                       6.28471401E-10, -4.40431446E-14, -1.42974456E+04,
                       1.13048985E+01])),
        transport=gas_transport(geom='nonlinear',
                                diam=3.59,
                                well_depth=498.002,
                                rot_relax=2.0))

species(name=u'CH3(10)',
        atoms='C:1 H:3',
        thermo=(NASA([100.00, 697.71],
                     [ 3.96043098E+00,  5.92939934E-04,  8.78575390E-06,
                      -9.88030557E-09,  3.63234580E-12,  1.64218818E+04,
                       3.39865631E-01]),
                NASA([697.71, 5000.00],
                     [ 3.09511187E+00,  5.55429874E-03, -1.88158855E-06,
                       3.13335012E-10, -2.05195181E-14,  1.65426192E+04,
                       4.20297876E+00])),
        transport=gas_transport(geom='nonlinear',
                                diam=3.8,
                                well_depth=144.001))

species(name=u'C3H8(11)',
        atoms='C:3 H:8',
        thermo=(NASA([100.00, 989.99],
                     [ 3.06336167E+00,  1.29214561E-02,  3.47032808E-05,
                      -4.70946154E-08,  1.71384141E-11, -1.43905789E+04,
                       1.07835592E+01]),
                NASA([989.99, 5000.00],
                     [ 5.60440043E+00,  2.19528785E-02, -8.22080610E-06,
                       1.50103993E-09, -1.05635358E-13, -1.58394038E+04,
                      -6.22623300E+00])),
        transport=gas_transport(geom='nonlinear',
                                diam=4.982,
                                well_depth=266.801,
                                rot_relax=1.0))

species(name=u'H(12)',
        atoms='H:1',
        thermo=(NASA([100.00, 3459.60],
                     [ 2.50000000E+00,  9.24384602E-15, -1.36779837E-17,
                       6.66184769E-21, -1.00106912E-24,  2.54742178E+04,
                      -4.44972896E-01]),
                NASA([3459.60, 5000.00],
                     [ 2.49999999E+00,  9.20455546E-12, -3.58608293E-15,
                       6.15198922E-19, -3.92041801E-23,  2.54742178E+04,
                      -4.44972842E-01])),
        transport=gas_transport(geom='atom',
                                diam=2.05,
                                well_depth=145.0))

species(name=u'C2H5(13)',
        atoms='C:2 H:5',
        thermo=(NASA([100.00, 1006.87],
                     [ 3.68746539E+00,  3.06889693E-03,  2.55873112E-05,
                      -2.94076576E-08,  9.94076215E-12,  1.31153648E+04,
                       6.96684864E+00]),
                NASA([1006.87, 5000.00],
                     [ 3.53781010E+00,  1.37311636E-02, -5.29564638E-06,
                       9.71482858E-10, -6.80289490E-14,  1.26351790E+04,
                       5.15566048E+00])),
        transport=gas_transport(geom='nonlinear',
                                diam=4.302,
                                well_depth=252.301,
                                rot_relax=1.5))

species(name=u'CH3OH(14)',
        atoms='C:1 H:4 O:1',
        thermo=(NASA([100.00, 1035.75],
                     [ 3.84006214E+00,  1.38241998E-03,  1.91667191E-05,
                      -2.01568660E-08,  6.39102259E-12, -2.56083087E+04,
                       5.90978137E+00]),
                NASA([1035.75, 5000.00],
                     [ 2.79184298E+00,  1.15827852E-02, -4.51551928E-06,
                       8.21206706E-10, -5.67063250E-14, -2.57211674E+04,
                       9.41061586E+00])),
        transport=gas_transport(geom='nonlinear',
                                diam=3.626,
                                well_depth=481.802,
                                rot_relax=1.0))

species(name=u'HCO(15)',
        atoms='C:1 H:1 O:1',
        thermo=(NASA([100.00, 1112.10],
                     [ 4.05936407E+00, -1.73846452E-03,  9.14981041E-06,
                      -8.01131526E-09,  2.25737264E-12,  3.84377617E+03,
                       3.32449702E+00]),
                NASA([1112.10, 5000.00],
                     [ 3.05136186E+00,  4.11706437E-03, -1.75586433E-06,
                       3.29302821E-10, -2.29174030E-14,  3.93007923E+03,
                       7.67464289E+00])),
        transport=gas_transport(geom='nonlinear',
                                diam=3.59,
                                well_depth=498.002))

species(name=u'CH3CHO(16)',
        atoms='C:2 H:4 O:1',
        thermo=(NASA([100.00, 1028.81],
                     [ 3.57991319E+00,  5.18996203E-03,  2.26893060E-05,
                      -2.73736957E-08,  9.28455869E-12, -2.13697369E+04,
                       8.96975431E+00]),
                NASA([1028.81, 5000.00],
                     [ 4.08568882E+00,  1.39060358E-02, -5.59365394E-06,
                       1.04608143E-09, -7.38729265E-14, -2.20391558E+04,
                       3.76773341E+00])),
        transport=gas_transport(geom='nonlinear',
                                diam=3.97,
                                well_depth=436.001,
                                rot_relax=2.0))

species(name=u'OH(17)',
        atoms='H:1 O:1',
        thermo=(NASA([100.00, 1145.75],
                     [ 3.51456768E+00,  2.92814373E-05, -5.32176582E-07,
                       1.01950588E-09, -3.85951152E-13,  3.41425421E+03,
                       2.10435015E+00]),
                NASA([1145.75, 5000.00],
                     [ 3.07194246E+00,  6.04011411E-04, -1.39759127E-08,
                      -2.13451563E-11,  2.48070095E-15,  3.57938557E+03,
                       4.57798500E+00])),
        transport=gas_transport(geom='linear',
                                diam=2.75,
                                well_depth=80.0))

species(name=u'C2H4(18)',
        atoms='C:2 H:4',
        thermo=(NASA([100.00, 979.36],
                     [ 3.97471606E+00, -4.75844285E-03,  4.16783770E-05,
                      -4.51392516E-08,  1.54224761E-11,  4.91540746E+03,
                       3.62430844E+00]),
                NASA([979.36, 5000.00],
                     [ 3.55660610E+00,  1.10627464E-02, -4.17019079E-06,
                       7.85586770E-10, -5.70060829E-14,  4.32046489E+03,
                       2.17719479E+00])),
        transport=gas_transport(geom='nonlinear',
                                diam=3.971,
                                well_depth=280.801,
                                rot_relax=1.5))

species(name=u'X(1)',
        atoms='X:1',
        thermo=(NASA([100.00, 1554.80],
                     [ 7.10139498E-03, -4.25619522E-05,  8.98533016E-08,
                      -7.80193649E-11,  2.32465471E-14, -8.76101712E-01,
                      -3.11211229E-02]),
                NASA([1554.80, 5000.00],
                     [ 1.60299900E-01, -2.52235409E-04,  1.14181275E-07,
                      -1.21471653E-11,  3.85790025E-16, -7.08100885E+01,
                      -9.09527530E-01])))

species(name=u'HX(19)',
        atoms='H:1 X:1',
        thermo=(NASA([100.00, 952.92],
                     [-3.80970193E-01,  5.47233259E-03,  2.60898127E-06,
                      -9.64943747E-09,  4.63938837E-12, -3.36697364E+03,
                       1.01727400E+00]),
                NASA([952.92, 5000.00],
                     [ 2.80342494E+00, -5.41105459E-04,  4.99542589E-07,
                      -7.55038869E-11,  3.06829737E-15, -4.30773307E+03,
                      -1.59438323E+01])))

species(name=u'OX(20)',
        atoms='O:1 X:1',
        thermo=(NASA([100.00, 888.26],
                     [-7.59009792E-01,  1.89868083E-02, -3.82472152E-05,
                       3.43556109E-08, -1.13973291E-11, -7.07786304E+03,
                       1.76016239E+00]),
                NASA([888.26, 5000.00],
                     [ 1.89892796E+00,  2.03296880E-03, -1.19977437E-06,
                       2.32682739E-10, -1.53510034E-14, -7.35340566E+03,
                      -9.64099483E+00])))

species(name=u'CH3X(21)',
        atoms='C:1 H:3 X:1',
        thermo=(NASA([100.00, 848.27],
                     [-1.21093616E+00,  2.92394850E-02, -4.49027759E-05,
                       3.86034718E-08, -1.30373279E-11, -5.42564967E+03,
                       6.80950553E+00]),
                NASA([848.27, 5000.00],
                     [ 1.62296017E+00,  1.12986425E-02, -5.08311828E-06,
                       9.46820425E-10, -6.42873813E-14, -5.74173749E+03,
                      -5.42530186E+00])))

species(name=u'HOX(22)',
        atoms='H:1 O:1 X:1',
        thermo=(NASA([100.00, 914.57],
                     [-1.29516639E+00,  3.36480038E-02, -7.07732334E-05,
                       6.54335595E-08, -2.19419654E-11, -1.71765068E+04,
                       4.37635096E+00]),
                NASA([914.57, 5000.00],
                     [ 2.43522771E+00,  4.64633644E-03, -2.40007491E-06,
                       4.26398799E-10, -2.60646650E-14, -1.73282880E+04,
                      -1.03869062E+01])))

species(name=u'H2OX(23)',
        atoms='H:2 O:1 X:1',
        thermo=(NASA([100.00, 912.84],
                     [-1.34343290E+00,  3.66699480E-02, -7.99495580E-05,
                       7.74146121E-08, -2.68675020E-11, -3.80451282E+04,
                       1.10238783E+01]),
                NASA([912.84, 5000.00],
                     [ 1.12167769E+00,  8.16623751E-03, -4.02348900E-06,
                       7.20398860E-10, -4.51423848E-14, -3.77576583E+04,
                       3.39566090E+00])))

species(name=u'CO2X(24)',
        atoms='C:1 O:2 X:1',
        thermo=(NASA([100.00, 938.77],
                     [ 3.31430991E+00, -3.22538321E-03,  3.60480380E-05,
                      -4.65407226E-08,  1.80306318E-11, -4.88145067E+04,
                      -4.98076349E+00]),
                NASA([938.77, 5000.00],
                     [ 6.88329807E+00,  2.85276842E-04,  5.30415113E-07,
                      -7.84496942E-11,  1.20332819E-15, -5.03093775E+04,
                      -2.63664548E+01])))

species(name=u'OCX(25)',
        atoms='C:1 O:1 X:1',
        thermo=(NASA([100.00, 891.30],
                     [-1.38224795E+00,  3.75318974E-02, -8.29810536E-05,
                       8.09776131E-08, -2.85506017E-11, -3.88269594E+04,
                       4.35485289E+00]),
                NASA([891.30, 5000.00],
                     [ 1.38117171E+00,  8.05672605E-03, -4.64281471E-06,
                       8.91104086E-10, -5.89992008E-14, -3.86413963E+04,
                      -4.85466443E+00])))

species(name=u'CX(26)',
        atoms='C:1 X:1',
        thermo=(NASA([100.00, 1401.18],
                     [-6.04855332E-01,  1.10908067E-02, -1.34368719E-05,
                       7.18227956E-09, -1.40681419E-12,  9.01827052E+03,
                       1.48479773E+00]),
                NASA([1401.18, 5000.00],
                     [ 3.08070303E+00, -6.87392523E-04,  5.17554082E-07,
                      -9.72940925E-11,  6.24177147E-15,  8.10882751E+03,
                      -1.70987996E+01])))

species(name=u'CH2X(27)',
        atoms='C:1 H:2 X:1',
        thermo=(NASA([100.00, 1199.84],
                     [-1.02006575E+00,  2.03778534E-02, -2.17291030E-05,
                       1.15868501E-08, -2.38469850E-12,  1.03460019E+03,
                       2.99160389E+00]),
                NASA([1199.84, 5000.00],
                     [ 3.89285602E+00,  3.99892067E-03, -1.25227814E-06,
                       2.09081052E-10, -1.39642229E-14, -1.44319137E+02,
                      -2.16053773E+01])))

species(name=u'CHX(28)',
        atoms='C:1 H:1 X:1',
        thermo=(NASA([100.00, 1596.81],
                     [-9.66374432E-01,  1.63179004E-02, -1.75392384E-05,
                       8.64097929E-09, -1.55502287E-12, -1.27430433E+03,
                       2.54981939E+00]),
                NASA([1596.81, 5000.00],
                     [ 4.21486287E+00,  2.18326414E-04,  5.15687210E-07,
                      -1.20806270E-10,  8.35375335E-15, -2.53115013E+03,
                      -2.36257652E+01])))

species(name=u'CH4X(45)',
        atoms='C:1 H:4 X:1',
        thermo=(NASA([100.00, 886.28],
                     [-1.38691234E+00,  4.00455375E-02, -8.37935783E-05,
                       8.75677805E-08, -3.27888587E-11, -1.09112169E+04,
                       1.78812380E+01]),
                NASA([886.28, 5000.00],
                     [-2.16838670E+00,  1.99492595E-02, -9.80004120E-06,
                       1.83534354E-09, -1.22520020E-13, -9.84489289E+03,
                       2.67912890E+01])))

species(name=u'COX(47)',
        atoms='C:1 O:1 X:1',
        thermo=(NASA([100.00, 931.14],
                     [ 3.31024038E+00,  2.94664870E-03,  2.21715518E-06,
                      -5.42281994E-09,  2.43215565E-12, -1.82870653E+04,
                      -6.34624490E+00]),
                NASA([931.14, 5000.00],
                     [ 4.36690931E+00,  1.51010675E-03, -4.66961286E-07,
                       7.75658963E-11, -5.46421967E-15, -1.86183511E+04,
                      -1.20909333E+01])))

species(name=u'CHOX(50)',
        atoms='C:1 H:1 O:1 X:1',
        thermo=(NASA([100.00, 847.20],
                     [-1.11392359E+00,  2.77198079E-02, -4.95557061E-05,
                       4.51389170E-08, -1.56864894E-11, -3.27666393E+04,
                       1.01024070E+01]),
                NASA([847.20, 5000.00],
                     [ 1.67939797E+00,  8.32422124E-03, -4.22518809E-06,
                       8.20069923E-10, -5.65232745E-14, -3.30171828E+04,
                      -1.59590572E+00])))

species(name=u'CH4OX(57)',
        atoms='C:1 H:4 O:1 X:1',
        thermo=(NASA([100.00, 850.42],
                     [-1.64006863E+00,  4.09972639E-02, -6.66150629E-05,
                       6.12089337E-08, -2.17722870E-11, -3.62036337E+04,
                       1.38244295E+01]),
                NASA([850.42, 5000.00],
                     [ 1.01830025E+00,  1.82967539E-02, -8.58984467E-06,
                       1.62233241E-09, -1.10734084E-13, -3.62870584E+04,
                       3.59793390E+00])))

#-------------------------------------------------------------------------------
# Reaction data
#-------------------------------------------------------------------------------

# Reaction 1
reaction('CH3(10) + H(12) <=> CH4(2)', [1.930000e+14, 0.0, 0.27],
         id='gas-1')

# Reaction 2
reaction('H(12) + OH(17) <=> H2O(5)', [1.620000e+14, 0.0, 0.15],
         id='gas-2')

# Reaction 3
reaction('H(12) + H(12) <=> H2(6)', [5.450000e+10, 0.0, 1.5],
         id='gas-3')

# Reaction 4
reaction('CH3(10) + CH3(10) <=> C2H6(8)', [9.450000e+14, -0.538, 0.135],
         id='gas-4')

# Reaction 5
reaction('H(12) + C2H5(13) <=> C2H6(8)', [1.000000e+14, 0.0, 0.0],
         id='gas-5')

# Reaction 6
reaction('H(12) + HCO(15) <=> CH2O(9)', [4.680000e+10, 0.0, -4.53],
         id='gas-6')

# Reaction 7
reaction('H2(6) + CO(7) <=> CH2O(9)', [2.890000e+09, 1.16, 82.1],
         id='gas-7')

# Reaction 8
reaction('CH3(10) + C2H5(13) <=> C3H8(11)', [1.230000e+15, -0.562, 0.021],
         id='gas-8')

# Reaction 9
reaction('H(12) + C2H4(18) <=> C2H5(13)', [4.620000e+08, 1.64, 1.01],
         id='gas-9')

# Reaction 10
reaction('CH3(10) + OH(17) <=> CH3OH(14)', [6.030000e+13, 0.0, 0.0],
         id='gas-10')

# Reaction 11
reaction('CO(7) + H(12) <=> HCO(15)', [1.180000e+11, 0.0, 2.72],
         id='gas-11')

# Reaction 12
reaction('CH3(10) + HCO(15) <=> CH3CHO(16)', [1.810000e+13, 0.0, 0.0],
         id='gas-12')

# Reaction 13
reaction('CH4(2) + CO(7) <=> CH3CHO(16)', [6.560000e+04, 2.86, 86.9],
         id='gas-13')

# Reaction 14
reaction('CH3(10) + HCO(15) <=> CH4(2) + CO(7)', [4.000000e+13, 0.0, 0.0],
         id='gas-14')

# Reaction 15
reaction('CH4(2) + H(12) <=> H2(6) + CH3(10)', [4.100000e+03, 3.156, 8.755],
         id='gas-15')

# Reaction 16
reaction('C2H6(8) + CH3(10) <=> CH4(2) + C2H5(13)', [3.500000e+01, 3.44, 10.384],
         id='gas-16')

# Reaction 17
reaction('CH4(2) + HCO(15) <=> CH2O(9) + CH3(10)', [7.280000e+03, 2.85, 34.25],
         id='gas-17')

# Reaction 18
reaction('CH4(2) + OH(17) <=> H2O(5) + CH3(10)', [1.000000e+06, 2.182, 2.506],
         id='gas-18')

# Reaction 19
reaction('CH3(10) + C2H5(13) <=> CH4(2) + C2H4(18)', [6.570000e+14, -0.68, 0.0],
         id='gas-19')

# Reaction 20
reaction('HCO(15) + OH(17) <=> H2O(5) + CO(7)', [1.240000e+23, -3.29, 2.355],
         id='gas-20')

# Reaction 21
reaction('H2(6) + OH(17) <=> H2O(5) + H(12)', [1.820000e+09, 1.21, 20.07],
         id='gas-21')

# Reaction 22
reaction('C2H6(8) + OH(17) <=> H2O(5) + C2H5(13)', [1.610000e+06, 2.224, 0.741],
         id='gas-22')

# Reaction 23
reaction('CH2O(9) + OH(17) <=> H2O(5) + HCO(15)', [3.440000e+09, 1.18, -0.45],
         id='gas-23')

# Reaction 24
reaction('C2H5(13) + OH(17) <=> H2O(5) + C2H4(18)', [7.230000e+13, 0.0, 0.0],
         id='gas-24')

# Reaction 25
reaction('H(12) + HCO(15) <=> H2(6) + CO(7)', [9.030000e+13, 0.0, 0.0],
         id='gas-25')

# Reaction 26
reaction('C2H6(8) + H(12) <=> H2(6) + C2H5(13)', [1.150000e+08, 1.9, 7.53],
         id='gas-26')

# Reaction 27
reaction('H2(6) + HCO(15) <=> CH2O(9) + H(12)', [1.800000e+06, 2.0, 48.94],
         id='gas-27')

# Reaction 28
reaction('H(12) + C2H5(13) <=> H2(6) + C2H4(18)', [1.083000e+13, 0.0, 0.0],
         id='gas-28')

# Reaction 29
reaction('C2H5(13) + HCO(15) <=> CO(7) + C2H6(8)', [4.300000e+13, 0.0, 0.0],
         id='gas-29')

# Reaction 30
reaction('HCO(15) + HCO(15) <=> CO(7) + CH2O(9)', [1.800000e+13, 0.0, 0.0],
         id='gas-30')

# Reaction 31
reaction('C2H6(8) + HCO(15) <=> CH2O(9) + C2H5(13)', [4.692000e+04, 2.72, 38.24],
         id='gas-31')

# Reaction 32
reaction('C2H5(13) + C2H5(13) <=> C2H6(8) + C2H4(18)', [6.900000e+13, -0.35, 0.0],
         id='gas-32')

# Reaction 33
reaction('C2H5(13) + HCO(15) <=> CH2O(9) + C2H4(18)', [5.972864e+14, -0.34, 0.0],
         id='gas-33')

# surface1 Reaction 1
surface_reaction('X(1) + CH4(2) <=> CH4X(45)', stick(1.000000e-01, 0.0, 0.0),
                 id='surface1-1')

# surface1 Reaction 2
surface_reaction('X(1) + X(1) + O2(3) <=> OX(20) + OX(20)', [1.890000e+21, -0.5, 0.0],
                 id='surface1-2')

# surface1 Reaction 3
surface_reaction('X(1) + X(1) + C2H6(8) <=> CH3X(21) + CH3X(21)', stick(1.000000e-02, 0.0, 10.0),
                 id='surface1-3')

# surface1 Reaction 4
surface_reaction('X(1) + CH3(10) <=> CH3X(21)', stick(1.000000e-01, 0.0, 0.0),
                 id='surface1-4')

# surface1 Reaction 5
surface_reaction('X(1) + X(1) + H2(6) <=> HX(19) + HX(19)', stick(4.600000e-02, 0.0, 0.0),
                 id='surface1-5')

# surface1 Reaction 6
surface_reaction('HX(19) + CH3X(21) <=> X(1) + X(1) + CH4(2)', [3.300000e+21, 0.0, 11.95],
                 id='surface1-6')

# surface1 Reaction 7
surface_reaction('X(1) + H(12) <=> HX(19)', stick(1.000000e-01, 0.0, 0.0),
                 id='surface1-7')

# surface1 Reaction 8
surface_reaction('HX(19) + CH2X(27) <=> X(1) + CH3X(21)', [3.090000e+22, 0.0, 0.0],
                 id='surface1-8')

# surface1 Reaction 9
surface_reaction('HX(19) + CHX(28) <=> X(1) + CH2X(27)', [3.090000e+22, 0.0, 0.0],
                 id='surface1-9')

# surface1 Reaction 10
surface_reaction('CH2X(27) + CH2X(27) <=> CH3X(21) + CHX(28)', [1.000000e+22, 0.0, 9.56],
                 id='surface1-10')

# surface1 Reaction 11
surface_reaction('X(1) + CHX(28) <=> HX(19) + CX(26)', [3.090000e+22, 0.0, 0.0],
                 id='surface1-11')

# surface1 Reaction 12
surface_reaction('H2(6) + CX(26) <=> CH2X(27)', stick(4.000000e-02, 0.0, 7.098),
                 id='surface1-12')

# surface1 Reaction 13
surface_reaction('CH3X(21) + CX(26) <=> CH2X(27) + CHX(28)', [1.500000e+22, 0.0, 9.56],
                 id='surface1-13')

# surface1 Reaction 14
surface_reaction('CX(26) + CH2X(27) <=> CHX(28) + CHX(28)', [1.000000e+22, 0.0, 9.56],
                 id='surface1-14')

# surface1 Reaction 15
surface_reaction('X(1) + CH4(2) + OX(20) <=> CH3X(21) + HOX(22)', [5.000000e+18, 0.7, 10.038],
                 id='surface1-15')

# surface1 Reaction 16
surface_reaction('HX(19) + OX(20) <=> X(1) + HOX(22)', [1.280000e+21, 0.0, 2.677],
                 id='surface1-16')

# surface1 Reaction 17
surface_reaction('X(1) + X(1) + H2O(5) <=> HX(19) + HOX(22)', stick(2.000000e-02, 0.0, 19.233),
                 id='surface1-17')

# surface1 Reaction 18