units(length='cm', time='s', quantity='mol', act_energy='kcal/mol')

ideal_gas(name='gas',
          elements="H D T C Ci O Oi N Ne Ar He Si S Cl X",
          species="""N2          Ar          He          Ne
                     CH4(2)      O2(3)       CO2(4)      H2O(5)
                     H2(6)       CO(7)       C2H6(8)     CH2O(9)
                     CH3(10)     C3H8(11)    H(12)       C2H5(13)
                     CH3OH(14)   HCO(15)     CH3CHO(16)  OH(17)
                     C2H4(18)    CH3OO(75)   C2H6O(121)  DME(215)""",
          reactions='gas-*',
          transport='Mix',
          initial_state=state(temperature=300.0, pressure=OneAtm))

ideal_interface(name='surface1',
                elements="H D T C Ci O Oi N Ne Ar He Si S Cl X",
                species="""X(1)        HX(19)      OX(20)      CH3X(21)
                          HOX(22)     H2OX(23)    CO2X(24)    OCX(25)
                          CX(26)      CH2X(27)    CHX(28)     CH4X(45)
                          COX(47)     C2H5X(48)   C2H6X(49)   C3H8X(54)
                          CH3OX(55)   CH3OX(56)   CH4OX(57)   CH2OX(181)
                          CHOX(183)   SX(187)     DMEX(217)   SX(246)""",
                site_density=2.9e-09,
                phases="gas",
          reactions='surface1-*',
                initial_state=state(temperature=300.0, pressure=OneAtm))

#-------------------------------------------------------------------------------
# Element data
#-------------------------------------------------------------------------------

element(symbol=u'Ci', atomic_mass=13.003)
element(symbol=u'D', atomic_mass=2.014)
element(symbol=u'Oi', atomic_mass=18.0)
element(symbol=u'T', atomic_mass=3.016)
element(symbol=u'X', atomic_mass=195.083)
#-------------------------------------------------------------------------------
# Species data
#-------------------------------------------------------------------------------

species(name=u'N2',
        atoms='N:2',
        thermo=(NASA([200.00, 1000.00],
                     [ 3.53101000E+00, -1.23661000E-04, -5.02999000E-07,
                       2.43531000E-09, -1.40881000E-12, -1.04698000E+03,
                       2.96747000E+00]),
                NASA([1000.00, 6000.00],
                     [ 2.95258000E+00,  1.39690000E-03, -4.92632000E-07,
                       7.86010000E-11, -4.60755000E-15, -9.23949000E+02,
                       5.87189000E+00])),
        transport=gas_transport(geom='linear',
                                diam=3.621,
                                well_depth=97.53,
                                polar=1.76,
                                rot_relax=4.0))

species(name=u'Ar',
        atoms='Ar:1',
        thermo=(NASA([200.00, 1000.00],
                     [ 2.50000000E+00,  0.00000000E+00,  0.00000000E+00,
                       0.00000000E+00,  0.00000000E+00, -7.45375000E+02,
                       4.37967000E+00]),
                NASA([1000.00, 6000.00],
                     [ 2.50000000E+00,  0.00000000E+00,  0.00000000E+00,
                       0.00000000E+00,  0.00000000E+00, -7.45375000E+02,
                       4.37967000E+00])),
        transport=gas_transport(geom='atom',
                                diam=3.33,
                                well_depth=136.501))

species(name=u'He',
        atoms='He:1',
        thermo=(NASA([200.00, 1000.00],
                     [ 2.50000000E+00,  0.00000000E+00,  0.00000000E+00,
                       0.00000000E+00,  0.00000000E+00, -7.45375000E+02,
                       9.28724000E-01]),
                NASA([1000.00, 6000.00],
                     [ 2.50000000E+00,  0.00000000E+00,  0.00000000E+00,
                       0.00000000E+00,  0.00000000E+00, -7.45375000E+02,
                       9.28724000E-01])),
        transport=gas_transport(geom='atom',
                                diam=2.576,
                                well_depth=10.2))

species(name=u'Ne',
        atoms='Ne:1',
        thermo=(NASA([200.00, 1000.00],
                     [ 2.50000000E+00,  0.00000000E+00,  0.00000000E+00,
                       0.00000000E+00,  0.00000000E+00, -7.45375000E+02,
                       3.35532000E+00]),
                NASA([1000.00, 6000.00],
                     [ 2.50000000E+00,  0.00000000E+00,  0.00000000E+00,
                       0.00000000E+00,  0.00000000E+00, -7.45375000E+02,
                       3.35532000E+00])),
        transport=gas_transport(geom='atom',
                                diam=3.758,
                                well_depth=148.6))

species(name=u'CH4(2)',
        atoms='C:1 H:4',
        thermo=(NASA([100.00, 1084.12],
                     [ 4.20541524E+00, -5.35557362E-03,  2.51123265E-05,
                      -2.13762843E-08,  5.97523937E-12, -1.01619433E+04,
                      -9.21279283E-01]),
                NASA([1084.12, 5000.00],
                     [ 9.08265721E-01,  1.14540858E-02, -4.57173828E-06,
                       8.29191671E-10, -5.66314895E-14, -9.71997444E+03,
                       1.39930944E+01])),
        transport=gas_transport(geom='nonlinear',
                                diam=3.746,
                                well_depth=141.4,
                                polar=2.6,
                                rot_relax=13.0))

species(name=u'O2(3)',
        atoms='O:2',
        thermo=(NASA([100.00, 1074.56],
                     [ 3.53732181E+00, -1.21570930E-03,  5.31617826E-06,
                      -4.89443424E-09,  1.45845042E-12, -1.03858846E+03,
                       4.68368406E+00]),
                NASA([1074.56, 5000.00],
                     [ 3.15382425E+00,  1.67803802E-03, -7.69971022E-07,
                       1.51274714E-10, -1.08781801E-14, -1.04081878E+03,
                       6.16753884E+00])),
        transport=gas_transport(geom='linear',
                                diam=3.467,
                                well_depth=106.7))

species(name=u'CO2(4)',
        atoms='C:1 O:2',
        thermo=(NASA([100.00, 978.21],
                     [ 3.28084634E+00,  2.50183460E-03,  8.08199998E-06,
                      -1.20511416E-08,  4.66547255E-12, -4.84008304E+04,
                       6.00080795E+00]),
                NASA([978.21, 5000.00],
                     [ 4.67426743E+00,  2.60964031E-03, -9.85689857E-07,
                       1.95713857E-10, -1.49836245E-14, -4.89512140E+04,
                      -2.11073617E+00])),
        transport=gas_transport(geom='linear',
                                diam=3.941,
                                well_depth=195.201))

species(name=u'H2O(5)',
        atoms='H:2 O:1',
        thermo=(NASA([100.00, 1130.24],
                     [ 4.05763610E+00, -7.87938871E-04,  2.90878480E-06,
                      -1.47520039E-09,  2.12847506E-13, -3.02815866E+04,
                      -3.11365027E-01]),
                NASA([1130.24, 5000.00],
                     [ 2.84324866E+00,  2.75108838E-03, -7.81033120E-07,
                       1.07244016E-10, -5.79395308E-15, -2.99586120E+04,
                       5.91043011E+00])),
        transport=gas_transport(geom='nonlinear',
                                diam=2.641,
                                well_depth=809.102,
                                polar=1.76,
                                rot_relax=4.0))

species(name=u'H2(6)',
        atoms='H:2',
        thermo=(NASA([100.00, 1959.08],
                     [ 3.43536412E+00,  2.12710353E-04, -2.78625043E-07,
                       3.40267167E-10, -7.76031998E-14, -1.03135984E+03,
                      -3.90841732E+00]),
                NASA([1959.08, 5000.00],
                     [ 2.78816583E+00,  5.87640942E-04,  1.59010417E-07,
                      -5.52739026E-11,  4.34310984E-15, -5.96144270E+02,
                       1.12732655E-01])),
        transport=gas_transport(geom='linear',
                                diam=2.833,
                                well_depth=59.7))

species(name=u'CO(7)',
        atoms='C:1 O:1',
        thermo=(NASA([100.00, 1571.63],
                     [ 3.56838038E+00, -8.52129500E-04,  2.48918819E-06,
                      -1.56331996E-09,  3.13598127E-13, -1.42842550E+04,
                       3.57912028E+00]),
                NASA([1571.63, 5000.00],
                     [ 2.91305202E+00,  1.64659937E-03, -6.88625686E-07,
                       1.21039677E-10, -7.84035796E-15, -1.41808768E+04,
                       6.71054299E+00])),
        transport=gas_transport(geom='linear',
                                diam=3.69,
                                well_depth=91.7,
                                polar=1.76,
                                rot_relax=4.0))

species(name=u'C2H6(8)',
        atoms='C:2 H:6',
        thermo=(NASA([100.00, 1012.42],
                     [ 3.72239291E+00,  1.65083841E-03,  3.44175530E-05,
                      -3.76858229E-08,  1.24450657E-11, -1.15575901E+04,
                       4.68247999E+00]),
                NASA([1012.42, 5000.00],
                     [ 2.82848257E+00,  1.73040568E-02, -6.73334245E-06,
                       1.23742024E-09, -8.65676410E-14, -1.19978080E+04,
                       5.93811707E+00])),
        transport=gas_transport(geom='nonlinear',
                                diam=4.302,
                                well_depth=252.301,
                                rot_relax=1.5))

species(name=u'CH2O(9)',
        atoms='C:1 H:2 O:1',
        thermo=(NASA([100.00, 1070.44],
                     [ 4.12927802E+00, -4.08401318E-03,  2.03229341E-05,
                      -1.83524244E-08,  5.37975522E-12, -1.44294640E+04,
                       3.22418463E+00]),
                NASA([1070.44, 5000.00],
                     [ 2.21172442E+00,  7.94265679E-03, -3.34193053E-06,
                       6.28471401E-10, -4.40431446E-14, -1.42974456E+04,
                       1.13048985E+01])),
        transport=gas_transport(geom='nonlinear',
                                diam=3.59,
                                well_depth=498.002,
                                rot_relax=2.0))

species(name=u'CH3(10)',
        atoms='C:1 H:3',
        thermo=(NASA([100.00, 697.71],
                     [ 3.96043098E+00,  5.92939934E-04,  8.78575390E-06,
                      -9.88030557E-09,  3.63234580E-12,  1.64218818E+04,
                       3.39865631E-01]),
                NASA([697.71, 5000.00],
                     [ 3.09511187E+00,  5.55429874E-03, -1.88158855E-06,
                       3.13335012E-10, -2.05195181E-14,  1.65426192E+04,
                       4.20297876E+00])),
        transport=gas_transport(geom='nonlinear',
                                diam=3.8,
                                well_depth=144.001))

species(name=u'C3H8(11)',
        atoms='C:3 H:8',
        thermo=(NASA([100.00, 989.99],
                     [ 3.06336167E+00,  1.29214561E-02,  3.47032808E-05,
                      -4.70946154E-08,  1.71384141E-11, -1.43905789E+04,
                       1.07835592E+01]),
                NASA([989.99, 5000.00],
                     [ 5.60440043E+00,  2.19528785E-02, -8.22080610E-06,
                       1.50103993E-09, -1.05635358E-13, -1.58394038E+04,
                      -6.22623300E+00])),
        transport=gas_transport(geom='nonlinear',
                                diam=4.982,
                                well_depth=266.801,
                                rot_relax=1.0))

species(name=u'H(12)',
        atoms='H:1',
        thermo=(NASA([100.00, 3459.60],
                     [ 2.50000000E+00,  9.24384602E-15, -1.36779837E-17,
                       6.66184769E-21, -1.00106912E-24,  2.54742178E+04,
                      -4.44972896E-01]),
                NASA([3459.60, 5000.00],
                     [ 2.49999999E+00,  9.20455546E-12, -3.58608293E-15,
                       6.15198922E-19, -3.92041801E-23,  2.54742178E+04,
                      -4.44972842E-01])),
        transport=gas_transport(geom='atom',
                                diam=2.05,
                                well_depth=145.0))

species(name=u'C2H5(13)',
        atoms='C:2 H:5',
        thermo=(NASA([100.00, 1006.87],
                     [ 3.68746539E+00,  3.06889693E-03,  2.55873112E-05,
                      -2.94076576E-08,  9.94076215E-12,  1.31153648E+04,
                       6.96684864E+00]),
                NASA([1006.87, 5000.00],
                     [ 3.53781010E+00,  1.37311636E-02, -5.29564638E-06,
                       9.71482858E-10, -6.80289490E-14,  1.26351790E+04,
                       5.15566048E+00])),
        transport=gas_transport(geom='nonlinear',
                                diam=4.302,
                                well_depth=252.301,
                                rot_relax=1.5))

species(name=u'CH3OH(14)',
        atoms='C:1 H:4 O:1',
        thermo=(NASA([100.00, 1035.75],
                     [ 3.84006214E+00,  1.38241998E-03,  1.91667191E-05,
                      -2.01568660E-08,  6.39102259E-12, -2.56083087E+04,
                       5.90978137E+00]),
                NASA([1035.75, 5000.00],
                     [ 2.79184298E+00,  1.15827852E-02, -4.51551928E-06,
                       8.21206706E-10, -5.67063250E-14, -2.57211674E+04,
                       9.41061586E+00])),
        transport=gas_transport(geom='nonlinear',
                                diam=3.626,
                                well_depth=481.802,
                                rot_relax=1.0))

species(name=u'HCO(15)',
        atoms='C:1 H:1 O:1',
        thermo=(NASA([100.00, 1112.10],
                     [ 4.05936407E+00, -1.73846452E-03,  9.14981041E-06,
                      -8.01131526E-09,  2.25737264E-12,  3.84377617E+03,
                       3.32449702E+00]),
                NASA([1112.10, 5000.00],
                     [ 3.05136186E+00,  4.11706437E-03, -1.75586433E-06,
                       3.29302821E-10, -2.29174030E-14,  3.93007923E+03,
                       7.67464289E+00])),
        transport=gas_transport(geom='nonlinear',
                                diam=3.59,
                                well_depth=498.002))

species(name=u'CH3CHO(16)',
        atoms='C:2 H:4 O:1',
        thermo=(NASA([100.00, 1028.81],
                     [ 3.57991319E+00,  5.18996203E-03,  2.26893060E-05,
                      -2.73736957E-08,  9.28455869E-12, -2.13697369E+04,
                       8.96975431E+00]),
                NASA([1028.81, 5000.00],
                     [ 4.08568882E+00,  1.39060358E-02, -5.59365394E-06,
                       1.04608143E-09, -7.38729265E-14, -2.20391558E+04,
                       3.76773341E+00])),
        transport=gas_transport(geom='nonlinear',
                                diam=3.97,
                                well_depth=436.001,
                                rot_relax=2.0))

species(name=u'OH(17)',
        atoms='H:1 O:1',
        thermo=(NASA([100.00, 1145.75],
                     [ 3.51456768E+00,  2.92814373E-05, -5.32176582E-07,
                       1.01950588E-09, -3.85951152E-13,  3.41425421E+03,
                       2.10435015E+00]),
                NASA([1145.75, 5000.00],
                     [ 3.07194246E+00,  6.04011411E-04, -1.39759127E-08,
                      -2.13451563E-11,  2.48070095E-15,  3.57938557E+03,
                       4.57798500E+00])),
        transport=gas_transport(geom='linear',
                                diam=2.75,
                                well_depth=80.0))

species(name=u'C2H4(18)',
        atoms='C:2 H:4',
        thermo=(NASA([100.00, 979.36],
                     [ 3.97471606E+00, -4.75844285E-03,  4.16783770E-05,
                      -4.51392516E-08,  1.54224761E-11,  4.91540746E+03,
                       3.62430844E+00]),
                NASA([979.36, 5000.00],
                     [ 3.55660610E+00,  1.10627464E-02, -4.17019079E-06,
                       7.85586770E-10, -5.70060829E-14,  4.32046489E+03,
                       2.17719479E+00])),
        transport=gas_transport(geom='nonlinear',
                                diam=3.971,
                                well_depth=280.801,
                                rot_relax=1.5))

species(name=u'CH3OO(75)',
        atoms='C:1 H:3 O:2',
        thermo=(NASA([100.00, 1031.35],
                     [ 3.58600855E+00,  6.15348645E-03,  1.33269290E-05,
                      -1.76581521E-08,  6.13210932E-12,  2.48233564E+02,
                       9.74096027E+00]),
                NASA([1031.35, 5000.00],
                     [ 4.35022282E+00,  1.07183275E-02, -4.26215078E-06,
                       7.89578335E-10, -5.53846326E-14, -3.09810145E+02,
                       4.08928223E+00])),
        transport=gas_transport(geom='nonlinear',
                                diam=3.69,
                                well_depth=417.0,
                                dipole=1.7,
                                rot_relax=2.0))

species(name=u'C2H6O(121)',
        atoms='C:2 H:6 O:1',
        thermo=(NASA([100.00, 984.00],
                     [ 3.24025884E+00,  1.04859660E-02,  2.63967401E-05,
                      -3.69293176E-08,  1.36710427E-11, -2.99902844E+04,
                       1.11433043E+01]),
                NASA([984.00, 5000.00],
                     [ 5.68494415E+00,  1.61313246E-02, -5.96365484E-06,
                       1.08897147E-09, -7.69620396E-14, -3.12258222E+04,
                      -4.44490663E+00])),
        transport=gas_transport(geom='nonlinear',
                                diam=4.53,
                                well_depth=362.6,
                                rot_relax=1.5))

species(name=u'DME(215)',
        atoms='C:2 H:6 O:1',
        thermo=(NASA([100.00, 1170.37],
                     [ 3.24109495E+00,  1.38083961E-02,  9.93079309E-06,
                      -1.47150011E-08,  4.62551994E-12, -2.37395984E+04,
                       9.23356479E+00]),
                NASA([1170.37, 5000.00],
                     [ 3.88833805E+00,  1.97268017E-02, -8.07487162E-06,
                       1.47701003E-09, -1.01103290E-13, -2.44479488E+04,
                       3.63023535E+00])),
        transport=gas_transport(geom='nonlinear',
                                diam=4.98,
                                well_depth=329.669))

species(name=u'X(1)',
        atoms='X:1',
        thermo=(NASA([100.00, 1554.80],
                     [ 7.10139498E-03, -4.25619522E-05,  8.98533016E-08,
                      -7.80193649E-11,  2.32465471E-14, -8.76101712E-01,
                      -3.11211229E-02]),
                NASA([1554.80, 5000.00],
                     [ 1.60299900E-01, -2.52235409E-04,  1.14181275E-07,
                      -1.21471653E-11,  3.85790025E-16, -7.08100885E+01,
                      -9.09527530E-01])))

species(name=u'HX(19)',
        atoms='H:1 X:1',
        thermo=(NASA([100.00, 952.92],
                     [-3.80970193E-01,  5.47233259E-03,  2.60898127E-06,
                      -9.64943747E-09,  4.63938837E-12, -3.36697364E+03,
                       1.01727400E+00]),
                NASA([952.92, 5000.00],
                     [ 2.80342494E+00, -5.41105459E-04,  4.99542589E-07,
                      -7.55038869E-11,  3.06829737E-15, -4.30773307E+03,
                      -1.59438323E+01])))

species(name=u'OX(20)',
        atoms='O:1 X:1',
        thermo=(NASA([100.00, 888.26],
                     [-7.59009792E-01,  1.89868083E-02, -3.82472152E-05,
                       3.43556109E-08, -1.13973291E-11, -1.43306795E+04,
                       1.76016239E+00]),
                NASA([888.26, 5000.00],
                     [ 1.89892796E+00,  2.03296880E-03, -1.19977437E-06,
                       2.32682739E-10, -1.53510034E-14, -1.46062221E+04,
                      -9.64099483E+00])))

species(name=u'CH3X(21)',
        atoms='C:1 H:3 X:1',
        thermo=(NASA([100.00, 848.27],
                     [-1.21093616E+00,  2.92394850E-02, -4.49027759E-05,
                       3.86034718E-08, -1.30373279E-11,  5.57923873E+02,
                       6.80950553E+00]),
                NASA([848.27, 5000.00],
                     [ 1.62296017E+00,  1.12986425E-02, -5.08311828E-06,
                       9.46820425E-10, -6.42873813E-14,  2.41836051E+02,
                      -5.42530186E+00])))

species(name=u'HOX(22)',
        atoms='H:1 O:1 X:1',
        thermo=(NASA([100.00, 914.57],
                     [-1.29516639E+00,  3.36480038E-02, -7.07732334E-05,
                       6.54335595E-08, -2.19419654E-11, -2.08029150E+04,
                       4.37635096E+00]),
                NASA([914.57, 5000.00],
                     [ 2.43522771E+00,  4.64633644E-03, -2.40007491E-06,
                       4.26398799E-10, -2.60646650E-14, -2.09546962E+04,
                      -1.03869062E+01])))

species(name=u'H2OX(23)',
        atoms='H:2 O:1 X:1',
        thermo=(NASA([100.00, 912.84],
                     [-1.34343290E+00,  3.66699480E-02, -7.99495580E-05,
                       7.74146121E-08, -2.68675020E-11, -3.80451282E+04,
                       1.10238783E+01]),
                NASA([912.84, 5000.00],
                     [ 1.12167769E+00,  8.16623751E-03, -4.02348900E-06,
                       7.20398860E-10, -4.51423848E-14, -3.77576583E+04,
                       3.39566090E+00])))

species(name=u'CO2X(24)',
        atoms='C:1 O:2 X:1',
        thermo=(NASA([100.00, 938.77],
                     [ 3.31430991E+00, -3.22538321E-03,  3.60480380E-05,
                      -4.65407226E-08,  1.80306318E-11, -4.88145067E+04,
                      -4.98076349E+00]),
                NASA([938.77, 5000.00],
                     [ 6.88329807E+00,  2.85276842E-04,  5.30415113E-07,
                      -7.84496942E-11,  1.20332819E-15, -5.03093775E+04,
                      -2.63664548E+01])))

species(name=u'OCX(25)',
        atoms='C:1 O:1 X:1',
        thermo=(NASA([100.00, 891.30],
                     [-1.38224795E+00,  3.75318974E-02, -8.29810536E-05,
                       8.09776131E-08, -2.85506017E-11, -2.68598123E+04,
                       4.35485289E+00]),
                NASA([891.30, 5000.00],
                     [ 1.38117171E+00,  8.05672605E-03, -4.64281471E-06,
                       8.91104086E-10, -5.89992008E-14, -2.66742492E+04,
                      -4.85466443E+00])))

species(name=u'CX(26)',
        atoms='C:1 X:1',
        thermo=(NASA([100.00, 1401.18],
                     [-6.04855332E-01,  1.10908067E-02, -1.34368719E-05,
                       7.18227956E-09, -1.40681419E-12,  3.29525647E+04,
                       1.48479773E+00]),
                NASA([1401.18, 5000.00],
                     [ 3.08070303E+00, -6.87392523E-04,  5.17554082E-07,
                      -9.72940925E-11,  6.24177147E-15,  3.20431217E+04,
                      -1.70987996E+01])))

species(name=u'CH2X(27)',
        atoms='C:1 H:2 X:1',
        thermo=(NASA([100.00, 1199.84],
                     [-1.02006575E+00,  2.03778534E-02, -2.17291030E-05,
                       1.15868501E-08, -2.38469850E-12,  1.30017473E+04,
                       2.99160389E+00]),
                NASA([1199.84, 5000.00],
                     [ 3.89285602E+00,  3.99892067E-03, -1.25227814E-06,
                       2.09081052E-10, -1.39642229E-14,  1.18228279E+04,
                      -2.16053773E+01])))

species(name=u'CHX(28)',
        atoms='C:1 H:1 X:1',
        thermo=(NASA([100.00, 1596.81],
                     [-9.66374432E-01,  1.63179004E-02, -1.75392384E-05,
                       8.64097929E-09, -1.55502287E-12,  1.66764163E+04,
                       2.54981939E+00]),
                NASA([1596.81, 5000.00],
                     [ 4.21486287E+00,  2.18326414E-04,  5.15687210E-07,
                      -1.20806270E-10,  8.35375335E-15,  1.54195705E+04,
                      -2.36257652E+01])))

species(name=u'CH4X(45)',
        atoms='C:1 H:4 X:1',
        thermo=(NASA([100.00, 886.28],
                     [-1.38691234E+00,  4.00455375E-02, -8.37935783E-05,
                       8.75677805E-08, -3.27888587E-11, -1.09112169E+04,
                       1.78812380E+01]),
                NASA([886.28, 5000.00],
                     [-2.16838670E+00,  1.99492595E-02, -9.80004120E-06,
                       1.83534354E-09, -1.22520020E-13, -9.84489289E+03,
                       2.67912890E+01])))

species(name=u'COX(47)',
        atoms='C:1 O:1 X:1',
        thermo=(NASA([100.00, 931.14],
                     [ 3.31024038E+00,  2.94664870E-03,  2.21715518E-06,
                      -5.42281994E-09,  2.43215565E-12, -1.82870653E+04,
                      -6.34624490E+00]),
                NASA([931.14, 5000.00],
                     [ 4.36690931E+00,  1.51010675E-03, -4.66961286E-07,
                       7.75658963E-11, -5.46421967E-15, -1.86183511E+04,
                      -1.20909333E+01])))

species(name=u'C2H5X(48)',
        atoms='C:2 H:5 X:1',
        thermo=(NASA([100.00, 1322.07],
                     [-1.30345110E+00,  2.96682661E-02, -2.10716963E-05,
                       8.21559941E-09, -1.38281007E-12, -3.50266361E+03,
                       1.11541590E+01]),
                NASA([1322.07, 5000.00],
                     [ 2.61924389E+00,  1.78000544E-02, -7.60635712E-06,
                       1.42564603E-09, -9.88617160E-14, -4.53989054E+03,
                      -8.86583139E+00])))

species(name=u'C2H6X(49)',
        atoms='C:2 H:6 X:1',
        thermo=(NASA([100.00, 826.21],
                     [-1.73432373E+00,  4.32697501E-02, -6.15090991E-05,
                       5.73040408E-08, -2.14186318E-11, -1.40629217E+04,
                       1.90799961E+01]),
                NASA([826.21, 5000.00],
                     [-4.51891226E-01,  2.66241096E-02, -1.23404364E-05,
                       2.34089053E-09, -1.61299398E-13, -1.39186067E+04,
                       1.52936020E+01])))

species(name=u'C3H8X(54)',
        atoms='C:3 H:8 X:1',
        thermo=(NASA([100.00, 1055.15],
                     [ 2.63637062E+00,  2.45143293E-02,  7.03516063E-06,
                      -1.97127413E-08,  7.58299564E-12, -1.69184455E+04,
                       3.16367020E+00]),
                NASA([1055.15, 5000.00],
                     [ 6.13451242E+00,  2.36123563E-02, -9.25256209E-06,
                       1.67933695E-09, -1.15738004E-13, -1.83446576E+04,
                      -1.71608368E+01])))

species(name=u'CH3OX(55)',
        atoms='C:1 H:3 O:1 X:1',
        thermo=(NASA([100.00, 828.58],
                     [-1.35894282E+00,  3.36251017E-02, -5.29304606E-05,
                       4.82432453E-08, -1.72983849E-11, -2.15227317E+04,
                       1.08679643E+01]),
                NASA([828.58, 5000.00],
                     [ 9.57998146E-01,  1.54516530E-02, -7.37928130E-06,
                       1.41401876E-09, -9.76983971E-14, -2.16667986E+04,
                       1.57333480E+00])))

species(name=u'CH3OX(56)',
        atoms='C:1 H:3 O:1 X:1',
        thermo=(NASA([100.00, 944.94],
                     [-1.28371595E+00,  2.95908097E-02, -3.37901715E-05,
                       2.12444663E-08, -5.43326107E-12, -2.82232433E+04,
                       1.08107006E+01]),
                NASA([944.94, 5000.00],
                     [ 2.99398827E+00,  1.14829602E-02, -5.04570375E-06,
                       9.64877407E-10, -6.79452668E-14, -2.90316774E+04,
                      -9.58448302E+00])))

species(name=u'CH4OX(57)',
        atoms='C:1 H:4 O:1 X:1',
        thermo=(NASA([100.00, 850.42],
                     [-1.64006863E+00,  4.09972639E-02, -6.66150629E-05,
                       6.12089337E-08, -2.17722870E-11, -3.62036337E+04,
                       1.38244295E+01]),
                NASA([850.42, 5000.00],
                     [ 1.01830025E+00,  1.82967539E-02, -8.58984467E-06,
                       1.62233241E-09, -1.10734084E-13, -3.62870584E+04,
                       3.59793390E+00])))

species(name=u'CH2OX(181)',
        atoms='C:1 H:2 O:1 X:1',
        thermo=(NASA([100.00, 1028.83],
                     [-1.04157164E+00,  2.37749786E-02, -2.57216906E-05,
                       1.48674416E-08, -3.48012160E-12, -1.84937967E+04,
                       9.95771227E+00]),
                NASA([1028.83, 5000.00],
                     [ 2.79565480E+00,  8.85597489E-03, -3.96997656E-06,
                       7.72456283E-10, -5.50706165E-14, -1.92833565E+04,
                      -8.66369649E+00])))

species(name=u'CHOX(183)',
        atoms='C:1 H:1 O:1 X:1',
        thermo=(NASA([100.00, 878.72],
                     [-1.56649421E+00,  3.83563130E-02, -7.06877051E-05,
                       6.19530122E-08, -2.04283349E-11, -1.64042355E+04,
                       5.18256005E+00]),
                NASA([878.72, 5000.00],
                     [ 3.55137700E+00,  7.05343805E-03, -3.58657055E-06,
                       6.76574109E-10, -4.51240810E-14, -1.69945791E+04,
                      -1.70877734E+01])))

species(name=u'SX(187)',
        atoms='C:1 H:3 O:2 X:1',
        thermo=(NASA([100.00, 954.63],
                     [ 3.38244664E+00,  7.16648393E-03,  2.49251193E-05,
                      -3.66319324E-08,  1.43346335E-11, -1.88020466E+04,
                      -6.81907551E+00]),
                NASA([954.63, 5000.00],
                     [ 6.86524175E+00,  8.72600960E-03, -2.90610195E-06,
                       5.28714941E-10, -3.88296381E-14, -2.02030193E+04,
                      -2.73148230E+01])))

species(name=u'DMEX(217)',
        atoms='C:2 H:6 O:1 X:1',
        thermo=(NASA([100.00, 991.58],
                     [ 3.29135320E+00,  7.95544776E-03,  3.79667816E-05,
                      -4.87059364E-08,  1.74983550E-11, -2.41540656E+04,
                      -1.81275374E+00]),
                NASA([991.58, 5000.00],
                     [ 5.54507897E+00,  1.82883613E-02, -7.04835485E-06,