units(length='cm', time='s', quantity='mol', act_energy='kcal/mol')

ideal_gas(name='gas',
          elements="H D T C Ci O Oi N Ne Ar He Si S Cl X",
          species="""N2          Ar          He          Ne
                     CH4(2)      O2(3)       CO2(4)      H2O(5)
                     H2(6)       CO(7)       C2H6(8)     CH2O(9)
                     CH3(10)     C3H8(11)    H(12)       C2H5(13)
                     CH3OH(14)   HCO(15)     CH3CHO(16)  OH(17)
                     C2H4(18)    HO2(52)     C2H4O2(56)  CH2OH(57)
                     CH3O(58)    HOOH(136)   OCO(140)    CH4O2(151)
                     CH4O3(154)  DME(163)    COCO(166)   S(174)
                     COCOO(186)  COCOC(188)  C3H6(193)   C2H4O(194)
                     C4H8(256)   C3H6O(257)  C4H8O(302)  C3H6O(317)
                     S(413)      S(429)      S(509)      S(518)
                     S(582)      CCOCO(801)  S(815)      OCOCO(828)
                     S(831)      CH4O3(841)  CH4O4(844)  S(846)
                     S(856)      S(904)      S(1104)     S(1529)
                     S(1573)     S(1581)     S(1668)     S(1794)
                     S(1915)     S(1925)     S(1934)     S(1966)
                     S(1971)     S(1981)     S(2436)     S(2886)
                     S(3873)""",
          reactions='gas-*',
          transport='Mix',
          initial_state=state(temperature=300.0, pressure=OneAtm))

ideal_interface(name='surface1',
                elements="H D T C Ci O Oi N Ne Ar He Si S Cl X",
                species="""X(1)        HX(19)      OX(20)      OCX(21)
                          CH3X(22)    HOX(23)     CHX(26)     CXHO(27)
                          CH4X(33)    H2OX(35)    H2X(36)     COX(37)
                          C2H5X(38)   C2H6X(39)   CH2OX(40)   C3H8X(43)
                          CH3OX(44)   CH3OX(45)   CH3OHX(46)  C2H3OX(47)
                          C2H4OX(49)  C2H3X(50)   C2H4X(51)   CH2X(134)
                          HO2X(135)   SX(139)     SX(152)     SX(162)
                          SX(164)     DMEX(177)   SX(182)     SX(192)
                          C3H5X(207)  C3H5X(208)  C3H6X(209)  SX(255)
                          C4H7X(270)  C4H8X(271)  SX(300)     SX(319)
                          SX(320)     SX(321)     SX(324)     SX(411)
                          SX(430)     SX(432)     SX(495)     SX(496)
                          SX(497)     SX(581)     SX(603)     SX(725)
                          SX(726)     SX(794)     SX(795)     SX(825)
                          SX(826)     SX(840)     SX(903)     SX(930)
                          SX(933)     SX(1133)    SX(1275)    SX(1305)
                          SX(1522)    SX(1523)    SX(1563)    SX(1733)
                          SX(1734)    SX(1785)    SX(1832)    SX(1858)
                          SX(1859)    SX(1860)    SX(1965)    SX(1997)
                          SX(1998)    SX(2045)    SX(2068)    SX(2069)
                          SX(2107)    SX(2109)    SX(2110)    SX(2161)
                          SX(2162)    SX(2163)    SX(2164)    SX(2286)
                          SX(2324)    SX(2349)    SX(2383)    SX(2384)
                          SX(2431)    SX(2469)    SX(2516)    SX(2545)
                          SX(2547)    SX(2644)    SX(2671)    SX(2680)
                          SX(2718)    SX(2765)    SX(2794)    SX(2840)
                          SX(2841)    SX(2842)    SX(2843)    SX(2888)
                          SX(2912)    SX(2913)    SX(3091)    SX(3138)
                          SX(3139)    SX(3204)    SX(3227)    SX(3228)
                          SX(3320)    SX(3457)    SX(3461)    SX(3727)
                          SX(3923)    SX(3924)    SX(3938)    SX(4080)
                          SX(4211)    SX(4224)    SX(4562)    SX(4751)
                          SX(4804)    SX(4805)    SX(4925)""",
                site_density=2.9e-09,
                phases="gas",
          reactions='surface1-*',
                initial_state=state(temperature=300.0, pressure=OneAtm))

#-------------------------------------------------------------------------------
# Element data
#-------------------------------------------------------------------------------

element(symbol=u'Ci', atomic_mass=13.003)
element(symbol=u'D', atomic_mass=2.014)
element(symbol=u'Oi', atomic_mass=18.0)
element(symbol=u'T', atomic_mass=3.016)
element(symbol=u'X', atomic_mass=195.083)
#-------------------------------------------------------------------------------
# Species data
#-------------------------------------------------------------------------------

species(name=u'N2',
        atoms='N:2',
        thermo=(NASA([200.00, 1000.00],
                     [ 3.53101000E+00, -1.23661000E-04, -5.02999000E-07,
                       2.43531000E-09, -1.40881000E-12, -1.04698000E+03,
                       2.96747000E+00]),
                NASA([1000.00, 6000.00],
                     [ 2.95258000E+00,  1.39690000E-03, -4.92632000E-07,
                       7.86010000E-11, -4.60755000E-15, -9.23949000E+02,
                       5.87189000E+00])),
        transport=gas_transport(geom='linear',
                                diam=3.621,
                                well_depth=97.53,
                                polar=1.76,
                                rot_relax=4.0))

species(name=u'Ar',
        atoms='Ar:1',
        thermo=(NASA([200.00, 1000.00],
                     [ 2.50000000E+00,  0.00000000E+00,  0.00000000E+00,
                       0.00000000E+00,  0.00000000E+00, -7.45375000E+02,
                       4.37967000E+00]),
                NASA([1000.00, 6000.00],
                     [ 2.50000000E+00,  0.00000000E+00,  0.00000000E+00,
                       0.00000000E+00,  0.00000000E+00, -7.45375000E+02,
                       4.37967000E+00])),
        transport=gas_transport(geom='atom',
                                diam=3.33,
                                well_depth=136.501))

species(name=u'He',
        atoms='He:1',
        thermo=(NASA([200.00, 1000.00],
                     [ 2.50000000E+00,  0.00000000E+00,  0.00000000E+00,
                       0.00000000E+00,  0.00000000E+00, -7.45375000E+02,
                       9.28724000E-01]),
                NASA([1000.00, 6000.00],
                     [ 2.50000000E+00,  0.00000000E+00,  0.00000000E+00,
                       0.00000000E+00,  0.00000000E+00, -7.45375000E+02,
                       9.28724000E-01])),
        transport=gas_transport(geom='atom',
                                diam=2.576,
                                well_depth=10.2))

species(name=u'Ne',
        atoms='Ne:1',
        thermo=(NASA([200.00, 1000.00],
                     [ 2.50000000E+00,  0.00000000E+00,  0.00000000E+00,
                       0.00000000E+00,  0.00000000E+00, -7.45375000E+02,
                       3.35532000E+00]),
                NASA([1000.00, 6000.00],
                     [ 2.50000000E+00,  0.00000000E+00,  0.00000000E+00,
                       0.00000000E+00,  0.00000000E+00, -7.45375000E+02,
                       3.35532000E+00])),
        transport=gas_transport(geom='atom',
                                diam=3.758,
                                well_depth=148.6))

species(name=u'CH4(2)',
        atoms='C:1 H:4',
        thermo=(NASA([100.00, 1084.15],
                     [ 4.20540072E+00, -5.35540640E-03,  2.51117636E-05,
                      -2.13755910E-08,  5.97496145E-12, -1.01619427E+04,
                      -9.21226951E-01]),
                NASA([1084.15, 5000.00],
                     [ 9.08349401E-01,  1.14539479E-02, -4.57166053E-06,
                       8.29173612E-10, -5.66300105E-14, -9.72001110E+03,
                       1.39926204E+01])),
        transport=gas_transport(geom='nonlinear',
                                diam=3.746,
                                well_depth=141.4,
                                polar=2.6,
                                rot_relax=13.0))

species(name=u'O2(3)',
        atoms='O:2',
        thermo=(NASA([100.00, 1074.56],
                     [ 3.53732118E+00, -1.21570207E-03,  5.31615377E-06,
                      -4.89440387E-09,  1.45843816E-12, -1.03858843E+03,
                       4.68368631E+00]),
                NASA([1074.56, 5000.00],
                     [ 3.15382772E+00,  1.67803228E-03, -7.69967779E-07,
                       1.51273960E-10, -1.08781182E-14, -1.04082030E+03,
                       6.16751919E+00])),
        transport=gas_transport(geom='linear',
                                diam=3.467,
                                well_depth=106.7))

species(name=u'CO2(4)',
        atoms='C:1 O:2',
        thermo=(NASA([100.00, 978.22],
                     [ 3.28083821E+00,  2.50193291E-03,  8.08164577E-06,
                      -1.20506695E-08,  4.66526645E-12, -4.84008301E+04,
                       6.00083693E+00]),
                NASA([978.22, 5000.00],
                     [ 4.67429780E+00,  2.60958835E-03, -9.85659769E-07,
                       1.95706729E-10, -1.49830320E-14, -4.89512267E+04,
                      -2.11090702E+00])),
        transport=gas_transport(geom='linear',
                                diam=3.941,
                                well_depth=195.201))

species(name=u'H2O(5)',
        atoms='H:2 O:1',
        thermo=(NASA([100.00, 1130.25],
                     [ 4.05763720E+00, -7.87951343E-04,  2.90882564E-06,
                      -1.47524910E-09,  2.12866372E-13, -3.02815867E+04,
                      -3.11369025E-01]),
                NASA([1130.25, 5000.00],
                     [ 2.84324104E+00,  2.75110073E-03, -7.81040007E-07,
                       1.07245603E-10, -5.79408217E-15, -2.99586086E+04,
                       5.91047337E+00])),
        transport=gas_transport(geom='nonlinear',
                                diam=2.641,
                                well_depth=809.102,
                                polar=1.76,
                                rot_relax=4.0))

species(name=u'H2(6)',
        atoms='H:2',
        thermo=(NASA([100.00, 1959.08],
                     [ 3.43536411E+00,  2.12710383E-04, -2.78625110E-07,
                       3.40267219E-10, -7.76032129E-14, -1.03135984E+03,
                      -3.90841731E+00]),
                NASA([1959.08, 5000.00],
                     [ 2.78816619E+00,  5.87640475E-04,  1.59010635E-07,
                      -5.52739465E-11,  4.34311304E-15, -5.96144481E+02,
                       1.12730527E-01])),
        transport=gas_transport(geom='linear',
                                diam=2.833,
                                well_depth=59.7))

species(name=u'CO(7)',
        atoms='C:1 O:1',
        thermo=(NASA([100.00, 1571.64],
                     [ 3.56837982E+00, -8.52124063E-04,  2.48917390E-06,
                      -1.56330672E-09,  3.13594213E-13, -1.42842549E+04,
                       3.57912239E+00]),
                NASA([1571.64, 5000.00],
                     [ 2.91306987E+00,  1.64657389E-03, -6.88612820E-07,
                       1.21036930E-10, -7.84014743E-15, -1.41808862E+04,
                       6.71043900E+00])),
        transport=gas_transport(geom='linear',
                                diam=3.69,
                                well_depth=91.7,
                                polar=1.76,
                                rot_relax=4.0))

species(name=u'C2H6(8)',
        atoms='C:2 H:6',
        thermo=(NASA([100.00, 1012.42],
                     [ 3.72239308E+00,  1.65083640E-03,  3.44175601E-05,
                      -3.76858321E-08,  1.24450696E-11, -1.15575902E+04,
                       4.68247939E+00]),
                NASA([1012.42, 5000.00],
                     [ 2.82848184E+00,  1.73040581E-02, -6.73334315E-06,
                       1.23742041E-09, -8.65676548E-14, -1.19978077E+04,
                       5.93812118E+00])),
        transport=gas_transport(geom='nonlinear',
                                diam=4.302,
                                well_depth=252.301,
                                rot_relax=1.5))

species(name=u'CH2O(9)',
        atoms='C:1 H:2 O:1',
        thermo=(NASA([100.00, 1070.44],
                     [ 4.12927829E+00, -4.08401633E-03,  2.03229448E-05,
                      -1.83524377E-08,  5.37976060E-12, -1.44294640E+04,
                       3.22418365E+00]),
                NASA([1070.44, 5000.00],
                     [ 2.21172293E+00,  7.94265924E-03, -3.34193191E-06,
                       6.28471724E-10, -4.40431711E-14, -1.42974450E+04,
                       1.13049069E+01])),
        transport=gas_transport(geom='nonlinear',
                                diam=3.59,
                                well_depth=498.002,
                                rot_relax=2.0))

species(name=u'CH3(10)',
        atoms='C:1 H:3',
        thermo=(NASA([100.00, 697.63],
                     [ 3.96043178E+00,  5.92930195E-04,  8.78578951E-06,
                      -9.88035524E-09,  3.63236942E-12,  1.64218817E+04,
                       3.39862787E-01]),
                NASA([697.63, 5000.00],
                     [ 3.09511262E+00,  5.55429714E-03, -1.88158748E-06,
                       3.13334732E-10, -2.05194931E-14,  1.65426190E+04,
                       4.20297474E+00])),
        transport=gas_transport(geom='nonlinear',
                                diam=3.8,
                                well_depth=144.001))

species(name=u'C3H8(11)',
        atoms='C:3 H:8',
        thermo=(NASA([100.00, 989.99],
                     [ 3.06337235E+00,  1.29213276E-02,  3.47037401E-05,
                      -4.70952219E-08,  1.71386763E-11, -1.43905793E+04,
                       1.07835211E+01]),
                NASA([989.99, 5000.00],
                     [ 5.60435845E+00,  2.19529500E-02, -8.22084738E-06,
                       1.50104968E-09, -1.05636167E-13, -1.58393862E+04,
                      -6.22599672E+00])),
        transport=gas_transport(geom='nonlinear',
                                diam=4.982,
                                well_depth=266.801,
                                rot_relax=1.0))

species(name=u'H(12)',
        atoms='H:1',
        thermo=(NASA([100.00, 4383.16],
                     [ 2.50000000E+00, -2.38914167E-13,  3.12709494E-16,
                      -1.33367320E-19,  1.74989654E-23,  2.54742178E+04,
                      -4.44972897E-01]),
                NASA([4383.16, 5000.00],
                     [ 2.50003447E+00, -3.04996987E-08,  1.01101187E-11,
                      -1.48796738E-15,  8.20356170E-20,  2.54741866E+04,
                      -4.45191184E-01])),
        transport=gas_transport(geom='atom',
                                diam=2.05,
                                well_depth=145.0))

species(name=u'C2H5(13)',
        atoms='C:2 H:5',
        thermo=(NASA([100.00, 1006.87],
                     [ 3.68745380E+00,  3.06903510E-03,  2.55868228E-05,
                      -2.94070210E-08,  9.94049079E-12,  1.31153653E+04,
                       6.96689006E+00]),
                NASA([1006.87, 5000.00],
                     [ 3.53785893E+00,  1.37310809E-02, -5.29559886E-06,
                       9.71471661E-10, -6.80280220E-14,  1.26351584E+04,
                       5.15538530E+00])),
        transport=gas_transport(geom='nonlinear',
                                diam=4.302,
                                well_depth=252.301,
                                rot_relax=1.5))

species(name=u'CH3OH(14)',
        atoms='C:1 H:4 O:1',
        thermo=(NASA([100.00, 1035.75],
                     [ 3.84006221E+00,  1.38241909E-03,  1.91667221E-05,
                      -2.01568699E-08,  6.39102422E-12, -2.56083087E+04,
                       5.90978110E+00]),
                NASA([1035.75, 5000.00],
                     [ 2.79184262E+00,  1.15827858E-02, -4.51551962E-06,
                       8.21206786E-10, -5.67063316E-14, -2.57211672E+04,
                       9.41061788E+00])),
        transport=gas_transport(geom='nonlinear',
                                diam=3.626,
                                well_depth=481.802,
                                rot_relax=1.0))

species(name=u'HCO(15)',
        atoms='C:1 H:1 O:1',
        thermo=(NASA([100.00, 1112.10],
                     [ 4.05936498E+00, -1.73847479E-03,  9.14984441E-06,
                      -8.01135632E-09,  2.25738876E-12,  3.84377613E+03,
                       3.32449376E+00]),
                NASA([1112.10, 5000.00],
                     [ 3.05135606E+00,  4.11707384E-03, -1.75586963E-06,
                       3.29304046E-10, -2.29175030E-14,  3.93008180E+03,
                       7.67467582E+00])),
        transport=gas_transport(geom='nonlinear',
                                diam=3.59,
                                well_depth=498.002))

species(name=u'CH3CHO(16)',
        atoms='C:2 H:4 O:1',
        thermo=(NASA([100.00, 1028.81],
                     [ 3.57992397E+00,  5.18983474E-03,  2.26897496E-05,
                      -2.73742644E-08,  9.28479682E-12, -2.13697374E+04,
                       8.96971567E+00]),
                NASA([1028.81, 5000.00],
                     [ 4.08563906E+00,  1.39061194E-02, -5.59370172E-06,
                       1.04609264E-09, -7.38738518E-14, -2.20391345E+04,
                       3.76801423E+00])),
        transport=gas_transport(geom='nonlinear',
                                diam=3.97,
                                well_depth=436.001,
                                rot_relax=2.0))

species(name=u'OH(17)',
        atoms='H:1 O:1',
        thermo=(NASA([100.00, 1145.76],
                     [ 3.51456841E+00,  2.92731942E-05, -5.32149835E-07,
                       1.01947431E-09, -3.85939061E-13,  3.41425418E+03,
                       2.10434749E+00]),
                NASA([1145.76, 5000.00],
                     [ 3.07193709E+00,  6.04020086E-04, -1.39807303E-08,
                      -2.13440498E-11,  2.48061111E-15,  3.57938799E+03,
                       4.57801556E+00])),
        transport=gas_transport(geom='linear',
                                diam=2.75,
                                well_depth=80.0))

species(name=u'C2H4(18)',
        atoms='C:2 H:4',
        thermo=(NASA([100.00, 979.37],
                     [ 3.97469045E+00, -4.75813325E-03,  4.16772624E-05,
                      -4.51377676E-08,  1.54218287E-11,  4.91540855E+03,
                       3.62439976E+00]),
                NASA([979.37, 5000.00],
                     [ 3.55670229E+00,  1.10625819E-02, -4.17009559E-06,
                       7.85564219E-10, -5.70042086E-14,  4.32042473E+03,
                       2.17665377E+00])),
        transport=gas_transport(geom='nonlinear',
                                diam=3.971,
                                well_depth=280.801,
                                rot_relax=1.5))

species(name=u'HO2(52)',
        atoms='H:1 O:2',
        thermo=(NASA([100.00, 1000.24],
                     [ 4.02425861E+00, -1.64549504E-03,  1.05110773E-05,
                      -1.06993350E-08,  3.49387579E-12,  2.34739940E+02,
                       4.70057285E+00]),
                NASA([1000.24, 5000.00],
                     [ 3.62866972E+00,  3.05389584E-03, -1.21131943E-06,
                       2.29641965E-10, -1.65063959E-14,  1.57931174E+02,
                       5.82961483E+00])),
        transport=gas_transport(geom='nonlinear',
                                diam=3.458,
                                well_depth=107.4,
                                rot_relax=1.0))

species(name=u'C2H4O2(56)',
        atoms='C:2 H:4 O:2',
        thermo=(NASA([100.00, 1020.01],
                     [ 3.21749345E+00,  1.02435557E-02,  2.71477256E-05,
                      -3.76382917E-08,  1.35869915E-11, -5.35456812E+04,
                       1.20525101E+01]),
                NASA([1020.01, 5000.00],
                     [ 6.36117064E+00,  1.55129650E-02, -6.47990505E-06,
                       1.25443495E-09, -9.10577088E-14, -5.51024252E+04,
                      -7.66356712E+00])),
        transport=gas_transport(geom='nonlinear',
                                diam=5.643,
                                well_depth=452.392))

species(name=u'CH2OH(57)',
        atoms='C:1 H:3 O:1',
        thermo=(NASA([100.00, 1015.48],
                     [ 3.61905813E+00,  6.28691312E-03,  5.57468797E-06,
                      -9.77892565E-09,  3.69467023E-12, -3.32162412E+03,
                       6.61711719E+00]),
                NASA([1015.48, 5000.00],
                     [ 4.77199556E+00,  6.78476310E-03, -2.60444492E-06,
                       4.77569185E-10, -3.34612248E-14, -3.81560640E+03,
                      -2.42174819E-01])),
        transport=gas_transport(geom='nonlinear',
                                diam=3.69,
                                well_depth=417.002,
                                dipole=1.7,
                                rot_relax=2.0))

species(name=u'CH3O(58)',
        atoms='C:1 H:3 O:1',
        thermo=(NASA([100.00, 985.46],
                     [ 3.95612920E+00, -3.06310406E-03,  3.06883846E-05,
                      -3.34123321E-08,  1.13928817E-11,  1.19253617E+03,
                       4.69435378E+00]),
                NASA([985.46, 5000.00],
                     [ 3.74492014E+00,  8.52627590E-03, -3.28790848E-06,
                       6.23964954E-10, -4.53276472E-14,  7.13053773E+02,
                       3.06622078E+00])),
        transport=gas_transport(geom='nonlinear',
                                diam=3.69,
                                well_depth=417.002,
                                dipole=1.7,
                                rot_relax=2.0))

species(name=u'HOOH(136)',
        atoms='H:2 O:2',
        thermo=(NASA([100.00, 1005.77],
                     [ 3.81666650E+00,  2.71170060E-03,  6.17781977E-06,
                      -8.24871834E-09,  2.92678168E-12, -1.76922542E+04,
                       5.38572985E+00]),
                NASA([1005.77, 5000.00],
                     [ 4.14709440E+00,  4.72699093E-03, -1.79322910E-06,
                       3.26126082E-10, -2.27314571E-14, -1.79271194E+04,
                       2.95254574E+00])),
        transport=gas_transport(geom='nonlinear',
                                diam=4.196,
                                well_depth=289.3))

species(name=u'OCO(140)',
        atoms='C:1 H:4 O:2',
        thermo=(NASA([100.00, 894.10],
                     [ 2.88385292E+00,  7.57480349E-03,  5.50794101E-05,
                      -9.34513271E-08,  4.16333127E-11, -4.93732325E+04,
                       1.12133157E+01]),
                NASA([894.10, 5000.00],
                     [ 1.68605497E+01, -9.64319453E-03,  7.94866031E-06,
                      -1.62836085E-09,  1.09847823E-13, -5.36836221E+04,
                      -6.47796358E+01])),
        transport=gas_transport(geom='nonlinear',
                                diam=5.898,
                                well_depth=436.691))

species(name=u'CH4O2(151)',
        atoms='C:1 H:4 O:2',
        thermo=(NASA([100.00, 1042.70],
                     [ 3.42342236E+00,  1.00731317E-02,  6.61604833E-06,
                      -1.19630863E-08,  4.37126355E-12, -1.69480675E+04,
                       8.99052484E+00]),
                NASA([1042.70, 5000.00],
                     [ 4.64750466E+00,  1.15696675E-02, -4.44495895E-06,
                       8.04483521E-10, -5.54884023E-14, -1.75399619E+04,
                       1.41965849E+00])),
        transport=gas_transport(geom='nonlinear',
                                diam=3.626,
                                well_depth=481.8,
                                rot_relax=1.0))

species(name=u'CH4O3(154)',
        atoms='C:1 H:4 O:3',
        thermo=(NASA([100.00, 1356.78],
                     [ 2.22803783E+00,  3.40318183E-02, -3.13933760E-05,
                       1.44113829E-08, -2.58881525E-12, -3.98227250E+04,
                       1.50578391E+01]),
                NASA([1356.78, 5000.00],
                     [ 1.08688635E+01,  8.55673394E-03, -3.22853612E-06,
                       5.72009603E-10, -3.87175114E-14, -4.21674118E+04,
                      -2.92653934E+01])),
        transport=gas_transport(geom='nonlinear',
                                diam=6.094,
                                well_depth=454.226))

species(name=u'DME(163)',
        atoms='C:2 H:6 O:1',
        thermo=(NASA([100.00, 1170.38],
                     [ 3.24108862E+00,  1.38084664E-02,  9.93056821E-06,
                      -1.47147400E-08,  4.62542167E-12, -2.37395981E+04,
                       9.23358779E+00]),
                NASA([1170.38, 5000.00],
                     [ 3.88838883E+00,  1.97267204E-02, -8.07482672E-06,
                       1.47699976E-09, -1.01102459E-13, -2.44479719E+04,
                       3.62994613E+00])),
        transport=gas_transport(geom='nonlinear',
                                diam=4.98,
                                well_depth=329.669))

species(name=u'COCO(166)',
        atoms='C:2 H:6 O:2',
        thermo=(NASA([100.00, 916.51],
                     [ 2.31186546E+00,  2.23355322E-02,  3.35258088E-05,
                      -6.96445895E-08,  3.14490398E-11, -4.68597550E+04,
                       1.52951176E+01]),
                NASA([916.51, 5000.00],
                     [ 1.54931108E+01,  3.38528005E-03,  1.40310944E-06,
                      -3.52963291E-10,  2.08689218E-14, -5.08961635E+04,
                      -5.59868569E+01])),
        transport=gas_transport(geom='nonlinear',
                                diam=5.709,
                                well_depth=402.716))

species(name=u'S(174)',
        atoms='C:2 H:6 O:2',
        thermo=(NASA([100.00, 1077.34],
                     [ 2.50267533E+00,  2.80145383E-02, -8.07254313E-06,
                      -6.28604886E-09,  3.57756449E-12, -2.12988172E+04,
                       1.56194447E+01]),
                NASA([1077.34, 5000.00],
                     [ 7.85990566E+00,  1.76809480E-02, -6.99118478E-06,
                       1.27878057E-09, -8.85848903E-14, -2.30077543E+04,
                      -1.31992233E+01])),
        transport=gas_transport(geom='nonlinear',
                                diam=4.037,
                                well_depth=395.0,
                                dipole=1.3,
                                rot_relax=1.0))

species(name=u'COCOO(186)',
        atoms='C:2 H:6 O:3',
        thermo=(NASA([100.00, 940.82],
                     [ 1.58741638E+00,  3.98452969E-02,  3.04919662E-07,
                      -3.85219679E-08,  2.02447760E-11, -3.82352639E+04,
                       1.86566459E+01]),
                NASA([940.82, 5000.00],
                     [ 1.69385238E+01,  7.77264360E-03, -1.48284897E-06,
                       2.45777922E-10, -2.16746884E-14, -4.25928860E+04,
                      -6.22745984E+01])),
        transport=gas_transport(geom='nonlinear',
                                diam=5.908,
                                well_depth=420.609))

species(name=u'COCOC(188)',
        atoms='C:3 H:8 O:2',
        thermo=(NASA([100.00, 952.99],
                     [ 1.72434043E+00,  3.72637625E-02,  1.14859684E-05,
                      -4.54087759E-08,  2.12000954E-11, -4.43456111E+04,
                       1.80471612E+01]),
                NASA([952.99, 5000.00],
                     [ 1.42743095E+01,  1.61620174E-02, -4.99767416E-06,
                       8.88306735E-10, -6.52836164E-14, -4.81713984E+04,
                      -4.94174472E+01])),
        transport=gas_transport(geom='nonlinear',
                                diam=5.508,
                                well_depth=367.821))

species(name=u'C3H6(193)',
        atoms='C:3 H:6',
        thermo=(NASA([100.00, 983.75],
                     [ 3.31912202E+00,  8.17957465E-03,  3.34736557E-05,
                      -4.36194260E-08,  1.58213614E-11,  7.49325285E+02,
                       9.54024700E+00]),
                NASA([983.75, 5000.00],
                     [ 5.36754789E+00,  1.70743084E-02, -6.35108004E-06,
                       1.16619619E-09, -8.27621023E-14, -4.87136723E+02,
                      -4.54465373E+00])),
        transport=gas_transport(geom='nonlinear',
                                diam=4.982,
                                well_depth=266.801,
                                rot_relax=1.0))

species(name=u'C2H4O(194)',
        atoms='C:2 H:4 O:1',
        thermo=(NASA([100.00, 938.09],
                     [ 3.14417874E+00,  1.21916760E-02,  1.68837501E-05,
                      -3.21137082E-08,  1.37102309E-11, -1.65949742E+04,
                       9.24892158E+00]),
                NASA([938.09, 5000.00],
                     [ 8.28285765E+00,  7.09593408E-03, -1.85579813E-06,
                       3.11671562E-10, -2.32724281E-14, -1.82989830E+04,
                      -1.91574564E+01])),
        transport=gas_transport(geom='nonlinear',
                                diam=3.97,
                                well_depth=436.0,
                                rot_relax=2.0))

species(name=u'C4H8(256)',
        atoms='C:4 H:8',
        thermo=(NASA([100.00, 1157.78],
                     [ 2.51999305E+00,  2.76811707E-02,  9.44135366E-07,
                      -1.25013222E-08,  4.67160311E-12, -3.34374810E+03,
                       1.30195268E+01]),
                NASA([1157.78, 5000.00],
                     [ 6.04218222E+00,  2.60073554E-02, -1.04844041E-05,
                       1.90882450E-09, -1.30601743E-13, -4.86273126E+03,
                      -7.52672501E+00])),
        transport=gas_transport(geom='nonlinear',
                                diam=5.289,
                                well_depth=359.053))

species(name=u'C3H6O(257)',
        atoms='C:3 H:6 O:1',
        thermo=(NASA([100.00, 1529.29],