units(length='cm', time='s', quantity='mol', act_energy='kcal/mol')

ideal_gas(name='gas',
          elements="H D T C Ci O Oi N Ne Ar He Si S Cl X",
          species="""N2          Ar          He          Ne
                     CH4(2)      O2(3)       CO2(4)      H2O(5)
                     H2(6)       CO(7)       C2H6(8)     CH2O(9)
                     CH3(10)     C3H8(11)    H(12)       C2H5(13)
                     CH3OH(14)   HCO(15)     CH3CHO(16)  OH(17)
                     C2H4(18)    C3H7(31)    C2H4O(41)   HO2(63)
                     CH3OO(75)   CH2O2(85)   CHO3(116)   OO(175)
                     OCO(219)    CH3O2(248)  CH4O3(260)  CH3O3(309)
                     CH4O4(337)  CH2O3(356)  CH3O3(460)  S(602)""",
          reactions='gas-*',
          transport='Mix',
          initial_state=state(temperature=300.0, pressure=OneAtm))

ideal_interface(name='surface1',
                elements="H D T C Ci O Oi N Ne Ar He Si S Cl X",
                species="""X(1)        HX(19)      OX(20)      CH3X(21)
                          HOX(22)     H2OX(23)    CO2X(24)    OCX(25)
                          CX(26)      CH2X(27)    CHX(28)     CH4X(45)
                          H2X(46)     COX(47)     C2H5X(48)   C2H6X(49)
                          CHOX(50)    C3H7X(52)   C3H8X(54)   CH3OX(56)
                          CH4OX(57)   C2H3X(61)   C2H4X(62)   C2H4X(179)
                          C2H3X(180)  HO2X(181)   CH2OX(182)  CHOX(183)
                          HOCOX(184)  SX(187)     SX(224)     SX(249)
                          SX(284)     H2O2X(351)  SX(452)     SX(487)
                          SX(542)     SX(543)     SX(630)     SX(710)""",
                site_density=2.9e-09,
                phases="gas",
          reactions='surface1-*',
                initial_state=state(temperature=300.0, pressure=OneAtm))

#-------------------------------------------------------------------------------
# Element data
#-------------------------------------------------------------------------------

element(symbol=u'Ci', atomic_mass=13.003)
element(symbol=u'D', atomic_mass=2.014)
element(symbol=u'Oi', atomic_mass=18.0)
element(symbol=u'T', atomic_mass=3.016)
element(symbol=u'X', atomic_mass=195.083)
#-------------------------------------------------------------------------------
# Species data
#-------------------------------------------------------------------------------

species(name=u'N2',
        atoms='N:2',
        thermo=(NASA([200.00, 1000.00],
                     [ 3.53101000E+00, -1.23661000E-04, -5.02999000E-07,
                       2.43531000E-09, -1.40881000E-12, -1.04698000E+03,
                       2.96747000E+00]),
                NASA([1000.00, 6000.00],
                     [ 2.95258000E+00,  1.39690000E-03, -4.92632000E-07,
                       7.86010000E-11, -4.60755000E-15, -9.23949000E+02,
                       5.87189000E+00])),
        transport=gas_transport(geom='linear',
                                diam=3.621,
                                well_depth=97.53,
                                polar=1.76,
                                rot_relax=4.0))

species(name=u'Ar',
        atoms='Ar:1',
        thermo=(NASA([200.00, 1000.00],
                     [ 2.50000000E+00,  0.00000000E+00,  0.00000000E+00,
                       0.00000000E+00,  0.00000000E+00, -7.45375000E+02,
                       4.37967000E+00]),
                NASA([1000.00, 6000.00],
                     [ 2.50000000E+00,  0.00000000E+00,  0.00000000E+00,
                       0.00000000E+00,  0.00000000E+00, -7.45375000E+02,
                       4.37967000E+00])),
        transport=gas_transport(geom='atom',
                                diam=3.33,
                                well_depth=136.501))

species(name=u'He',
        atoms='He:1',
        thermo=(NASA([200.00, 1000.00],
                     [ 2.50000000E+00,  0.00000000E+00,  0.00000000E+00,
                       0.00000000E+00,  0.00000000E+00, -7.45375000E+02,
                       9.28724000E-01]),
                NASA([1000.00, 6000.00],
                     [ 2.50000000E+00,  0.00000000E+00,  0.00000000E+00,
                       0.00000000E+00,  0.00000000E+00, -7.45375000E+02,
                       9.28724000E-01])),
        transport=gas_transport(geom='atom',
                                diam=2.576,
                                well_depth=10.2))

species(name=u'Ne',
        atoms='Ne:1',
        thermo=(NASA([200.00, 1000.00],
                     [ 2.50000000E+00,  0.00000000E+00,  0.00000000E+00,
                       0.00000000E+00,  0.00000000E+00, -7.45375000E+02,
                       3.35532000E+00]),
                NASA([1000.00, 6000.00],
                     [ 2.50000000E+00,  0.00000000E+00,  0.00000000E+00,
                       0.00000000E+00,  0.00000000E+00, -7.45375000E+02,
                       3.35532000E+00])),
        transport=gas_transport(geom='atom',
                                diam=3.758,
                                well_depth=148.6))

species(name=u'CH4(2)',
        atoms='C:1 H:4',
        thermo=(NASA([100.00, 1084.12],
                     [ 4.20541524E+00, -5.35557362E-03,  2.51123265E-05,
                      -2.13762843E-08,  5.97523937E-12, -1.01619433E+04,
                      -9.21279283E-01]),
                NASA([1084.12, 5000.00],
                     [ 9.08265721E-01,  1.14540858E-02, -4.57173828E-06,
                       8.29191671E-10, -5.66314895E-14, -9.71997444E+03,
                       1.39930944E+01])),
        transport=gas_transport(geom='nonlinear',
                                diam=3.746,
                                well_depth=141.4,
                                polar=2.6,
                                rot_relax=13.0))

species(name=u'O2(3)',
        atoms='O:2',
        thermo=(NASA([100.00, 1074.56],
                     [ 3.53732181E+00, -1.21570930E-03,  5.31617826E-06,
                      -4.89443424E-09,  1.45845042E-12, -1.03858846E+03,
                       4.68368406E+00]),
                NASA([1074.56, 5000.00],
                     [ 3.15382425E+00,  1.67803802E-03, -7.69971022E-07,
                       1.51274714E-10, -1.08781801E-14, -1.04081878E+03,
                       6.16753884E+00])),
        transport=gas_transport(geom='linear',
                                diam=3.467,
                                well_depth=106.7))

species(name=u'CO2(4)',
        atoms='C:1 O:2',
        thermo=(NASA([100.00, 978.21],
                     [ 3.28084634E+00,  2.50183460E-03,  8.08199998E-06,
                      -1.20511416E-08,  4.66547255E-12, -4.84008304E+04,
                       6.00080795E+00]),
                NASA([978.21, 5000.00],
                     [ 4.67426743E+00,  2.60964031E-03, -9.85689857E-07,
                       1.95713857E-10, -1.49836245E-14, -4.89512140E+04,
                      -2.11073617E+00])),
        transport=gas_transport(geom='linear',
                                diam=3.941,
                                well_depth=195.201))

species(name=u'H2O(5)',
        atoms='H:2 O:1',
        thermo=(NASA([100.00, 1130.24],
                     [ 4.05763610E+00, -7.87938871E-04,  2.90878480E-06,
                      -1.47520039E-09,  2.12847506E-13, -3.02815866E+04,
                      -3.11365027E-01]),
                NASA([1130.24, 5000.00],
                     [ 2.84324866E+00,  2.75108838E-03, -7.81033120E-07,
                       1.07244016E-10, -5.79395308E-15, -2.99586120E+04,
                       5.91043011E+00])),
        transport=gas_transport(geom='nonlinear',
                                diam=2.641,
                                well_depth=809.102,
                                polar=1.76,
                                rot_relax=4.0))

species(name=u'H2(6)',
        atoms='H:2',
        thermo=(NASA([100.00, 1959.08],
                     [ 3.43536412E+00,  2.12710353E-04, -2.78625043E-07,
                       3.40267167E-10, -7.76031998E-14, -1.03135984E+03,
                      -3.90841732E+00]),
                NASA([1959.08, 5000.00],
                     [ 2.78816583E+00,  5.87640942E-04,  1.59010417E-07,
                      -5.52739026E-11,  4.34310984E-15, -5.96144270E+02,
                       1.12732655E-01])),
        transport=gas_transport(geom='linear',
                                diam=2.833,
                                well_depth=59.7))

species(name=u'CO(7)',
        atoms='C:1 O:1',
        thermo=(NASA([100.00, 1571.63],
                     [ 3.56838038E+00, -8.52129500E-04,  2.48918819E-06,
                      -1.56331996E-09,  3.13598127E-13, -1.42842550E+04,
                       3.57912028E+00]),
                NASA([1571.63, 5000.00],
                     [ 2.91305202E+00,  1.64659937E-03, -6.88625686E-07,
                       1.21039677E-10, -7.84035796E-15, -1.41808768E+04,
                       6.71054299E+00])),
        transport=gas_transport(geom='linear',
                                diam=3.69,
                                well_depth=91.7,
                                polar=1.76,
                                rot_relax=4.0))

species(name=u'C2H6(8)',
        atoms='C:2 H:6',
        thermo=(NASA([100.00, 1012.42],
                     [ 3.72239291E+00,  1.65083841E-03,  3.44175530E-05,
                      -3.76858229E-08,  1.24450657E-11, -1.15575901E+04,
                       4.68247999E+00]),
                NASA([1012.42, 5000.00],
                     [ 2.82848257E+00,  1.73040568E-02, -6.73334245E-06,
                       1.23742024E-09, -8.65676410E-14, -1.19978080E+04,
                       5.93811707E+00])),
        transport=gas_transport(geom='nonlinear',
                                diam=4.302,
                                well_depth=252.301,
                                rot_relax=1.5))

species(name=u'CH2O(9)',
        atoms='C:1 H:2 O:1',
        thermo=(NASA([100.00, 1070.44],
                     [ 4.12927802E+00, -4.08401318E-03,  2.03229341E-05,
                      -1.83524244E-08,  5.37975522E-12, -1.44294640E+04,
                       3.22418463E+00]),
                NASA([1070.44, 5000.00],
                     [ 2.21172442E+00,  7.94265679E-03, -3.34193053E-06,
                       6.28471401E-10, -4.40431446E-14, -1.42974456E+04,
                       1.13048985E+01])),
        transport=gas_transport(geom='nonlinear',
                                diam=3.59,
                                well_depth=498.002,
                                rot_relax=2.0))

species(name=u'CH3(10)',
        atoms='C:1 H:3',
        thermo=(NASA([100.00, 697.71],
                     [ 3.96043098E+00,  5.92939934E-04,  8.78575390E-06,
                      -9.88030557E-09,  3.63234580E-12,  1.64218818E+04,
                       3.39865631E-01]),
                NASA([697.71, 5000.00],
                     [ 3.09511187E+00,  5.55429874E-03, -1.88158855E-06,
                       3.13335012E-10, -2.05195181E-14,  1.65426192E+04,
                       4.20297876E+00])),
        transport=gas_transport(geom='nonlinear',
                                diam=3.8,
                                well_depth=144.001))

species(name=u'C3H8(11)',
        atoms='C:3 H:8',
        thermo=(NASA([100.00, 989.99],
                     [ 3.06336167E+00,  1.29214561E-02,  3.47032808E-05,
                      -4.70946154E-08,  1.71384141E-11, -1.43905789E+04,
                       1.07835592E+01]),
                NASA([989.99, 5000.00],
                     [ 5.60440043E+00,  2.19528785E-02, -8.22080610E-06,
                       1.50103993E-09, -1.05635358E-13, -1.58394038E+04,
                      -6.22623300E+00])),
        transport=gas_transport(geom='nonlinear',
                                diam=4.982,
                                well_depth=266.801,
                                rot_relax=1.0))

species(name=u'H(12)',
        atoms='H:1',
        thermo=(NASA([100.00, 3459.60],
                     [ 2.50000000E+00,  9.24384602E-15, -1.36779837E-17,
                       6.66184769E-21, -1.00106912E-24,  2.54742178E+04,
                      -4.44972896E-01]),
                NASA([3459.60, 5000.00],
                     [ 2.49999999E+00,  9.20455546E-12, -3.58608293E-15,
                       6.15198922E-19, -3.92041801E-23,  2.54742178E+04,
                      -4.44972842E-01])),
        transport=gas_transport(geom='atom',
                                diam=2.05,
                                well_depth=145.0))

species(name=u'C2H5(13)',
        atoms='C:2 H:5',
        thermo=(NASA([100.00, 1006.87],
                     [ 3.68746539E+00,  3.06889693E-03,  2.55873112E-05,
                      -2.94076576E-08,  9.94076215E-12,  1.31153648E+04,
                       6.96684864E+00]),
                NASA([1006.87, 5000.00],
                     [ 3.53781010E+00,  1.37311636E-02, -5.29564638E-06,
                       9.71482858E-10, -6.80289490E-14,  1.26351790E+04,
                       5.15566048E+00])),
        transport=gas_transport(geom='nonlinear',
                                diam=4.302,
                                well_depth=252.301,
                                rot_relax=1.5))

species(name=u'CH3OH(14)',
        atoms='C:1 H:4 O:1',
        thermo=(NASA([100.00, 1035.75],
                     [ 3.84006214E+00,  1.38241998E-03,  1.91667191E-05,
                      -2.01568660E-08,  6.39102259E-12, -2.56083087E+04,
                       5.90978137E+00]),
                NASA([1035.75, 5000.00],
                     [ 2.79184298E+00,  1.15827852E-02, -4.51551928E-06,
                       8.21206706E-10, -5.67063250E-14, -2.57211674E+04,
                       9.41061586E+00])),
        transport=gas_transport(geom='nonlinear',
                                diam=3.626,
                                well_depth=481.802,
                                rot_relax=1.0))

species(name=u'HCO(15)',
        atoms='C:1 H:1 O:1',
        thermo=(NASA([100.00, 1112.10],
                     [ 4.05936407E+00, -1.73846452E-03,  9.14981041E-06,
                      -8.01131526E-09,  2.25737264E-12,  3.84377617E+03,
                       3.32449702E+00]),
                NASA([1112.10, 5000.00],
                     [ 3.05136186E+00,  4.11706437E-03, -1.75586433E-06,
                       3.29302821E-10, -2.29174030E-14,  3.93007923E+03,
                       7.67464289E+00])),
        transport=gas_transport(geom='nonlinear',
                                diam=3.59,
                                well_depth=498.002))

species(name=u'CH3CHO(16)',
        atoms='C:2 H:4 O:1',
        thermo=(NASA([100.00, 1028.81],
                     [ 3.57991319E+00,  5.18996203E-03,  2.26893060E-05,
                      -2.73736957E-08,  9.28455869E-12, -2.13697369E+04,
                       8.96975431E+00]),
                NASA([1028.81, 5000.00],
                     [ 4.08568882E+00,  1.39060358E-02, -5.59365394E-06,
                       1.04608143E-09, -7.38729265E-14, -2.20391558E+04,
                       3.76773341E+00])),
        transport=gas_transport(geom='nonlinear',
                                diam=3.97,
                                well_depth=436.001,
                                rot_relax=2.0))

species(name=u'OH(17)',
        atoms='H:1 O:1',
        thermo=(NASA([100.00, 1145.75],
                     [ 3.51456768E+00,  2.92814373E-05, -5.32176582E-07,
                       1.01950588E-09, -3.85951152E-13,  3.41425421E+03,
                       2.10435015E+00]),
                NASA([1145.75, 5000.00],
                     [ 3.07194246E+00,  6.04011411E-04, -1.39759127E-08,
                      -2.13451563E-11,  2.48070095E-15,  3.57938557E+03,
                       4.57798500E+00])),
        transport=gas_transport(geom='linear',
                                diam=2.75,
                                well_depth=80.0))

species(name=u'C2H4(18)',
        atoms='C:2 H:4',
        thermo=(NASA([100.00, 979.36],
                     [ 3.97471606E+00, -4.75844285E-03,  4.16783770E-05,
                      -4.51392516E-08,  1.54224761E-11,  4.91540746E+03,
                       3.62430844E+00]),
                NASA([979.36, 5000.00],
                     [ 3.55660610E+00,  1.10627464E-02, -4.17019079E-06,
                       7.85586770E-10, -5.70060829E-14,  4.32046489E+03,
                       2.17719479E+00])),
        transport=gas_transport(geom='nonlinear',
                                diam=3.971,
                                well_depth=280.801,
                                rot_relax=1.5))

species(name=u'C3H7(31)',
        atoms='C:3 H:7',
        thermo=(NASA([100.00, 1029.98],
                     [ 3.23517664E+00,  1.11017089E-02,  2.80210109E-05,
                      -3.59453943E-08,  1.23655282E-11,  9.05375593E+03,
                       1.19813903E+01]),
                NASA([1029.98, 5000.00],
                     [ 4.36587052E+00,  2.14398710E-02, -8.48554105E-06,
                       1.56800611E-09, -1.09812137E-13,  8.03954686E+03,
                       2.70031311E+00])),
        transport=gas_transport(geom='nonlinear',
                                diam=4.982,
                                well_depth=266.801,
                                rot_relax=1.0))

species(name=u'C2H4O(41)',
        atoms='C:2 H:4 O:1',
        thermo=(NASA([100.00, 938.10],
                     [ 3.14417382E+00,  1.21917367E-02,  1.68835252E-05,
                      -3.21133987E-08,  1.37100910E-11, -1.65949740E+04,
                       9.24893905E+00]),
                NASA([938.10, 5000.00],
                     [ 8.28287311E+00,  7.09590725E-03, -1.85578242E-06,
                       3.11667813E-10, -2.32721147E-14, -1.82989894E+04,
                      -1.91575431E+01])),
        transport=gas_transport(geom='nonlinear',
                                diam=3.97,
                                well_depth=436.0,
                                rot_relax=2.0))

species(name=u'HO2(63)',
        atoms='H:1 O:2',
        thermo=(NASA([100.00, 1000.25],
                     [ 4.02425547E+00, -1.64545752E-03,  1.05109441E-05,
                      -1.06991604E-08,  3.49380097E-12,  2.34740074E+02,
                       4.70058405E+00]),
                NASA([1000.25, 5000.00],
                     [ 3.62868258E+00,  3.05387401E-03, -1.21130686E-06,
                       2.29639000E-10, -1.65061502E-14,  1.57925751E+02,
                       5.82954238E+00])),
        transport=gas_transport(geom='nonlinear',
                                diam=3.458,
                                well_depth=107.4,
                                rot_relax=1.0))

species(name=u'CH3OO(75)',
        atoms='C:1 H:3 O:2',
        thermo=(NASA([100.00, 1031.35],
                     [ 3.58600855E+00,  6.15348645E-03,  1.33269290E-05,
                      -1.76581521E-08,  6.13210932E-12,  2.48233564E+02,
                       9.74096027E+00]),
                NASA([1031.35, 5000.00],
                     [ 4.35022282E+00,  1.07183275E-02, -4.26215078E-06,
                       7.89578335E-10, -5.53846326E-14, -3.09810145E+02,
                       4.08928223E+00])),
        transport=gas_transport(geom='nonlinear',
                                diam=3.69,
                                well_depth=417.0,
                                dipole=1.7,
                                rot_relax=2.0))

species(name=u'CH2O2(85)',
        atoms='C:1 H:2 O:2',
        thermo=(NASA([100.00, 993.73],
                     [ 3.76241335E+00, -9.43947850E-04,  3.38781957E-05,
                      -4.04987780E-08,  1.43988412E-11, -4.68212105E+04,
                       7.63273333E+00]),
                NASA([993.73, 5000.00],
                     [ 5.64497050E+00,  7.55187503E-03, -3.20854541E-06,
                       6.58926362E-10, -5.05061286E-14, -4.79889887E+04,
                      -5.43086107E+00])),
        transport=gas_transport(geom='nonlinear',
                                diam=3.626,
                                well_depth=481.8,
                                dipole=1.7,
                                rot_relax=1.0))

species(name=u'CHO3(116)',
        atoms='C:1 H:1 O:3',
        thermo=(NASA([100.00, 968.18],
                     [ 3.28602846E+00,  9.07561735E-03,  1.53519911E-05,
                      -2.86388483E-08,  1.19720838E-11, -4.58350951E+04,
                       1.10209048E+01]),
                NASA([968.18, 5000.00],
                     [ 8.68686310E+00,  3.22550311E-03, -1.09079827E-06,
                       2.46309521E-10, -2.15831083E-14, -4.76525035E+04,
                      -1.88452041E+01])),
        transport=gas_transport(geom='nonlinear',
                                diam=5.425,
                                well_depth=432.363))

species(name=u'OO(175)',
        atoms='H:2 O:2',
        thermo=(NASA([100.00, 1005.78],
                     [ 3.81666060E+00,  2.71177103E-03,  6.17757060E-06,
                      -8.24839330E-09,  2.92664300E-12, -1.76922539E+04,
                       5.38575095E+00]),
                NASA([1005.78, 5000.00],
                     [ 4.14711917E+00,  4.72694898E-03, -1.79320499E-06,
                       3.26120398E-10, -2.27309864E-14, -1.79271299E+04,
                       2.95240617E+00])),
        transport=gas_transport(geom='nonlinear',
                                diam=4.196,
                                well_depth=289.3))

species(name=u'OCO(219)',
        atoms='C:1 H:4 O:2',
        thermo=(NASA([100.00, 894.11],
                     [ 2.88372686E+00,  7.57639546E-03,  5.50733244E-05,
                      -9.34426386E-08,  4.16292241E-11, -4.93732271E+04,
                       1.12137611E+01]),
                NASA([894.11, 5000.00],
                     [ 1.68608749E+01, -9.64376863E-03,  7.94900025E-06,
                      -1.62844270E-09,  1.09854710E-13, -5.36837522E+04,
                      -6.47814539E+01])),
        transport=gas_transport(geom='nonlinear',
                                diam=5.898,
                                well_depth=436.691))

species(name=u'CH3O2(248)',
        atoms='C:1 H:3 O:2',
        thermo=(NASA([100.00, 1261.91],
                     [ 2.70939750E+00,  2.54992890E-02, -3.14580952E-05,
                       1.89353308E-08, -4.23675999E-12, -2.66538217E+04,
                       1.16233064E+01]),
                NASA([1261.91, 5000.00],
                     [ 8.67769452E+00,  2.77367681E-03,  8.08868819E-08,
                      -1.17578637E-10,  1.15164149E-14, -2.78569689E+04,
                      -1.73575345E+01])),
        transport=gas_transport(geom='nonlinear',
                                diam=5.898,
                                well_depth=436.691))

species(name=u'CH4O3(260)',
        atoms='C:1 H:4 O:3',
        thermo=(NASA([100.00, 844.27],
                     [ 2.69687443E+00,  3.43592570E-02, -5.88062345E-05,
                       5.90160504E-08, -2.25209525E-11, -7.22065646E+04,
                       1.45765971E+01]),
                NASA([844.27, 5000.00],
                     [ 2.93921878E+00,  2.00243065E-02, -9.90874893E-06,
                       1.90443525E-09, -1.31173785E-13, -7.17775170E+04,
                       1.62317410E+01])),
        transport=gas_transport(geom='nonlinear',
                                diam=6.621,
                                well_depth=506.876))

species(name=u'CH3O3(309)',
        atoms='C:1 H:3 O:3',
        thermo=(NASA([100.00, 853.61],
                     [ 3.24523803E+00,  3.16188428E-02, -8.37890189E-05,
                       1.09319000E-07, -4.73204798E-11, -4.48856806E+04,
                       1.41784385E+01]),
                NASA([853.61, 5000.00],
                     [-6.08759958E+00,  3.51521534E-02, -1.93557161E-05,
                       3.82492929E-09, -2.65476156E-13, -4.18277810E+04,
                       6.63055532E+01])),
        transport=gas_transport(geom='nonlinear',
                                diam=6.621,
                                well_depth=506.876))

species(name=u'CH4O4(337)',
        atoms='C:1 H:4 O:4',
        thermo=(NASA([100.00, 828.77],
                     [ 2.00259204E+00,  5.15285313E-02, -9.09542829E-05,
                       8.90287816E-08, -3.34369562E-11, -6.35833558E+04,
                       1.89279274E+01]),
                NASA([828.77, 5000.00],
                     [ 4.15405193E+00,  2.48081977E-02, -1.30252775E-05,
                       2.55797639E-09, -1.78283869E-13, -6.33789265E+04,
                       1.23372394E+01])),
        transport=gas_transport(geom='nonlinear',
                                diam=6.815,
                                well_depth=524.195))

species(name=u'CH2O3(356)',
        atoms='C:1 H:2 O:3',
        thermo=(NASA([100.00, 956.74],
                     [ 2.98121897E+00,  1.14382351E-02,  2.77969862E-05,
                      -4.94731071E-08,  2.08013384E-11, -7.51362691E+04,
                       1.09455328E+01]),
                NASA([956.74, 5000.00],
                     [ 1.18951636E+01,  1.71634542E-03, -1.48117122E-07,
                       9.26358257E-11, -1.38650302E-14, -7.81026565E+04,
                      -3.82535148E+01])),
        transport=gas_transport(geom='nonlinear',
                                diam=5.425,
                                well_depth=432.363))

species(name=u'CH3O3(460)',
        atoms='C:1 H:3 O:3',
        thermo=(NASA([100.00, 863.68],
                     [ 2.72609039E+00,  3.51836900E-02, -6.95440714E-05,
                       7.15582667E-08, -2.70249891E-11, -4.75235477E+04,
                       1.51597483E+01]),
                NASA([863.68, 5000.00],
                     [ 2.78860499E+00,  1.76326648E-02, -9.08303247E-06,
                       1.74807831E-09, -1.19411092E-13, -4.68905465E+04,
                       1.85944012E+01])),
        transport=gas_transport(geom='nonlinear',
                                diam=6.621,
                                well_depth=506.876))

species(name=u'S(602)',
        atoms='C:3 H:7 O:2',
        thermo=(NASA([100.00, 1582.74],
                     [ 1.95850815E+00,  4.14289201E-02, -2.74436781E-05,
                       9.49419554E-09, -1.36273469E-12, -9.43192009E+03,
                       1.83291862E+01]),
                NASA([1582.74, 5000.00],
                     [ 9.88459663E+00,  2.13977671E-02, -8.45983002E-06,
                       1.49806212E-09, -9.97238350E-14, -1.19409271E+04,
                      -2.35489938E+01])),
        transport=gas_transport(geom='nonlinear',
                                diam=6.057,
                                well_depth=422.794))

species(name=u'X(1)',
        atoms='X:1',
        thermo=(NASA([100.00, 1554.80],
                     [ 7.10139498E-03, -4.25619522E-05,  8.98533016E-08,
                      -7.80193649E-11,  2.32465471E-14, -8.76101712E-01,
                      -3.11211229E-02]),
                NASA([1554.80, 5000.00],
                     [ 1.60299900E-01, -2.52235409E-04,  1.14181275E-07,
                      -1.21471653E-11,  3.85790025E-16, -7.08100885E+01,
                      -9.09527530E-01])))

species(name=u'HX(19)',
        atoms='H:1 X:1',
        thermo=(NASA([100.00, 952.92],
                     [-3.80970193E-01,  5.47233259E-03,  2.60898127E-06,
                      -9.64943747E-09,  4.63938837E-12, -3.36697364E+03,
                       1.01727400E+00]),
                NASA([952.92, 5000.00],
                     [ 2.80342494E+00, -5.41105459E-04,  4.99542589E-07,
                      -7.55038869E-11,  3.06829737E-15, -4.30773307E+03,
                      -1.59438323E+01])))

species(name=u'OX(20)',
        atoms='O:1 X:1',
        thermo=(NASA([100.00, 888.26],
                     [-7.59009792E-01,  1.89868083E-02, -3.82472152E-05,
                       3.43556109E-08, -1.13973291E-11,  1.74953371E+02,
                       1.76016239E+00]),
                NASA([888.26, 5000.00],
                     [ 1.89892796E+00,  2.03296880E-03, -1.19977437E-06,
                       2.32682739E-10, -1.53510034E-14, -1.00589253E+02,
                      -9.64099483E+00])))

species(name=u'CH3X(21)',
        atoms='C:1 H:3 X:1',
        thermo=(NASA([100.00, 848.27],
                     [-1.21093616E+00,  2.92394850E-02, -4.49027759E-05,
                       3.86034718E-08, -1.30373279E-11,  5.57923873E+02,
                       6.80950553E+00]),
                NASA([848.27, 5000.00],
                     [ 1.62296017E+00,  1.12986425E-02, -5.08311828E-06,
                       9.46820425E-10, -6.42873813E-14,  2.41836051E+02,
                      -5.42530186E+00])))

species(name=u'HOX(22)',
        atoms='H:1 O:1 X:1',
        thermo=(NASA([100.00, 914.57],
                     [-1.29516639E+00,  3.36480038E-02, -7.07732334E-05,
                       6.54335595E-08, -2.19419654E-11, -1.35500986E+04,
                       4.37635096E+00]),
                NASA([914.57, 5000.00],
                     [ 2.43522771E+00,  4.64633644E-03, -2.40007491E-06,
                       4.26398799E-10, -2.60646650E-14, -1.37018798E+04,
                      -1.03869062E+01])))

species(name=u'H2OX(23)',
        atoms='H:2 O:1 X:1',
        thermo=(NASA([100.00, 912.84],
                     [-1.34343290E+00,  3.66699480E-02, -7.99495580E-05,
                       7.74146121E-08, -2.68675020E-11, -3.80451282E+04,
                       1.10238783E+01]),
                NASA([912.84, 5000.00],
                     [ 1.12167769E+00,  8.16623751E-03, -4.02348900E-06,
                       7.20398860E-10, -4.51423848E-14, -3.77576583E+04,
                       3.39566090E+00])))

species(name=u'CO2X(24)',
        atoms='C:1 O:2 X:1',